# generated using pymatgen
data_Ga3H12C36O13
_symmetry_space_group_name_H-M   'P 1'
_cell_length_a   22.24200543
_cell_length_b   22.46620000
_cell_length_c   22.65745000
_cell_angle_alpha   90.00000000
_cell_angle_beta   90.00000000
_cell_angle_gamma   118.38769766
_symmetry_Int_Tables_number   1
_chemical_formula_structural   Ga3H12C36O13
_chemical_formula_sum   'Ga6 H24 C72 O26'
_cell_volume   9960.34090961
_cell_formula_units_Z   2
loop_
 _symmetry_equiv_pos_site_id
 _symmetry_equiv_pos_as_xyz
  1  'x, y, z'
loop_
 _atom_site_type_symbol
 _atom_site_label
 _atom_site_symmetry_multiplicity
 _atom_site_fract_x
 _atom_site_fract_y
 _atom_site_fract_z
 _atom_site_occupancy
  C  C0  1  0.46099500  0.76288000  0.39552750  1.0
  C  C1  1  0.46885000  0.56983000  0.39492000  1.0
  C  C2  1  0.26887000  0.56589000  0.39516000  1.0
  C  C3  1  0.26889500  0.56595000  0.23826000  1.0
  C  C4  1  0.46843500  0.56933250  0.23848500  1.0
  C  C5  1  0.46096750  0.76294000  0.23781500  1.0
  C  C6  1  0.67192000  0.16628000  0.89554000  1.0
  C  C7  1  0.66497500  0.35998500  0.89482000  1.0
  C  C8  1  0.86412000  0.36498250  0.89545000  1.0
  C  C9  1  0.86458000  0.36343000  0.73824000  1.0
  C  C10  1  0.66324000  0.35822000  0.73822000  1.0
  C  C11  1  0.67309000  0.16690000  0.73791000  1.0
  C  C12  1  0.91607750  0.39223750  0.94103250  1.0
  C  C13  1  0.95976250  0.41280500  0.97920500  1.0
  C  C14  1  0.01254750  0.43711250  0.02476250  1.0
  C  C15  1  0.06501250  0.42009250  0.02341750  1.0
  C  C16  1  0.11858750  0.44690000  0.06444000  1.0
  C  C17  1  0.12071000  0.49084000  0.10870000  1.0
  C  C18  1  0.06811250  0.50769500  0.11015500  1.0
  C  C19  1  0.01462500  0.48102500  0.06904000  1.0
  C  C20  1  0.17512000  0.51771250  0.15285750  1.0
  C  C21  1  0.21783750  0.54023750  0.19180000  1.0
  C  C22  1  0.64766000  0.11588000  0.69140000  1.0
  C  C23  1  0.62269000  0.07317000  0.65270000  1.0
  C  C24  1  0.59525000  0.01955000  0.60787000  1.0
  C  C25  1  0.54784000  0.01528000  0.56548000  1.0
  C  C26  1  0.52002000  0.96164000  0.52491000  1.0
  C  C27  1  0.53832000  0.91048000  0.52516000  1.0
  C  C28  1  0.58578000  0.91474000  0.56748000  1.0
  C  C29  1  0.61356000  0.96836000  0.60812000  1.0
  C  C30  1  0.50938000  0.85582000  0.48140000  1.0
  C  C31  1  0.48586000  0.81346000  0.44234000  1.0
  C  C32  1  0.49259750  0.54327750  0.19125250  1.0
  C  C33  1  0.51206250  0.52054500  0.15162000  1.0
  C  C34  1  0.54055500  0.49424500  0.10756500  1.0
  C  C35  1  0.50808750  0.46914750  0.05390000  1.0
  C  C36  1  0.53385250  0.44015250  0.01342500  1.0
  C  C37  1  0.59261500  0.43545750  0.02536750  1.0
  C  C38  1  0.62563500  0.46117250  0.07885250  1.0
  C  C39  1  0.59972500  0.49008750  0.11947750  1.0
  C  C40  1  0.61926250  0.40679500  0.98174250  1.0
  C  C41  1  0.64023000  0.38552000  0.94206000  1.0
  C  C42  1  0.91504000  0.38919000  0.69133000  1.0
  C  C43  1  0.95731000  0.41159000  0.65201000  1.0
  C  C44  1  0.01223000  0.43836000  0.60834000  1.0
  C  C45  1  0.00231000  0.45449000  0.55106000  1.0
  C  C46  1  0.05597250  0.48057750  0.51012000  1.0
  C  C47  1  0.12090750  0.49093000  0.52482500  1.0
  C  C48  1  0.13093000  0.47513000  0.58220500  1.0
  C  C49  1  0.07725250  0.44905250  0.62318500  1.0
  C  C50  1  0.17570500  0.51749500  0.48102500  1.0
  C  C51  1  0.21813250  0.54052250  0.44187500  1.0
  C  C52  1  0.64575000  0.11455000  0.94120000  1.0
  C  C53  1  0.62234000  0.07121750  0.97938000  1.0
  C  C54  1  0.59487000  0.01905000  0.02525000  1.0
  C  C55  1  0.52929000  0.99570000  0.04810000  1.0
  C  C56  1  0.50168000  0.94223000  0.08879000  1.0
  C  C57  1  0.53866000  0.91067000  0.10844000  1.0
  C  C58  1  0.60445000  0.93429000  0.08587000  1.0
  C  C59  1  0.63205000  0.98775000  0.04510000  1.0
  C  C60  1  0.50968000  0.85639000  0.15247000  1.0
  C  C61  1  0.48595500  0.81378750  0.19130000  1.0
  C  C62  1  0.63684000  0.38231000  0.69121000  1.0
  C  C63  1  0.61778000  0.40572000  0.65184000  1.0
  C  C64  1  0.59307000  0.43639000  0.60848000  1.0
  C  C65  1  0.56274000  0.47498000  0.62649000  1.0
  C  C66  1  0.53676000  0.50327000  0.58537000  1.0
  C  C67  1  0.54146000  0.49430000  0.52510000  1.0
  C  C68  1  0.57195000  0.45591000  0.50721000  1.0
  C  C69  1  0.59786000  0.42762000  0.54826000  1.0
  C  C70  1  0.51498250  0.52299250  0.48141000  1.0
  C  C71  1  0.49435500  0.54482500  0.44194000  1.0
  Ga  Ga72  1  0.48345500  0.67567500  0.31651750  1.0
  Ga  Ga73  1  0.36087750  0.55064750  0.31682250  1.0
  Ga  Ga74  1  0.35519000  0.67333750  0.31669000  1.0
  Ga  Ga75  1  0.65057000  0.25384000  0.81696000  1.0
  Ga  Ga76  1  0.77217000  0.37896000  0.81602000  1.0
  Ga  Ga77  1  0.77876750  0.25627000  0.81732750  1.0
  H  H78  1  0.06524000  0.38675500  0.99005000  1.0
  H  H79  1  0.15847750  0.43359250  0.06092750  1.0
  H  H80  1  0.06859750  0.54201000  0.14287000  1.0
  H  H81  1  0.97547500  0.49545250  0.07168000  1.0
  H  H82  1  0.53146000  0.05274000  0.56362000  1.0
  H  H83  1  0.48393000  0.96001000  0.49315000  1.0
  H  H84  1  0.60172000  0.87693000  0.56956000  1.0
  H  H85  1  0.64926000  0.96970000  0.64018000  1.0
  H  H86  1  0.46201500  0.47037250  0.04350000  1.0
  H  H87  1  0.50764250  0.42110000  0.97274250  1.0
  H  H88  1  0.67125250  0.45906500  0.08955750  1.0
  H  H89  1  0.62526000  0.50821000  0.16066250  1.0
  H  H90  1  0.95326000  0.44670000  0.53746000  1.0
  H  H91  1  0.04672000  0.49271000  0.46674000  1.0
  H  H92  1  0.17997250  0.48278250  0.59576000  1.0
  H  H93  1  0.08644000  0.43678000  0.66654000  1.0
  H  H94  1  0.49866000  0.01790000  0.03420000  1.0
  H  H95  1  0.45102000  0.92518000  0.10466000  1.0
  H  H96  1  0.63473000  0.91149000  0.09920000  1.0
  H  H97  1  0.68229000  0.00413000  0.02842000  1.0
  H  H98  1  0.55850000  0.48264000  0.67244000  1.0
  H  H99  1  0.51236000  0.53116000  0.60100000  1.0
  H  H100  1  0.57493000  0.44705000  0.46135000  1.0
  H  H101  1  0.62095000  0.39855000  0.53265000  1.0
  O  O102  1  0.50401750  0.74288250  0.37362250  1.0
  O  O103  1  0.40733750  0.52854750  0.37333750  1.0
  O  O104  1  0.28768000  0.62747500  0.37379500  1.0
  O  O105  1  0.29324000  0.52620250  0.25901500  1.0
  O  O106  1  0.50828500  0.63179750  0.25854250  1.0
  O  O107  1  0.39752000  0.74020000  0.25833000  1.0
  O  O108  1  0.50399750  0.74291250  0.25961250  1.0
  O  O109  1  0.40716750  0.52841250  0.26054750  1.0
  O  O110  1  0.28770750  0.62757500  0.25958750  1.0
  O  O111  1  0.29319250  0.52610000  0.37443750  1.0
  O  O112  1  0.50829250  0.63209750  0.37444500  1.0
  O  O113  1  0.39755000  0.74017500  0.37504000  1.0
  O  O114  1  0.39998500  0.63335250  0.31665250  1.0
  O  O115  1  0.62944000  0.18683000  0.87367000  1.0
  O  O116  1  0.72607250  0.40119750  0.87260000  1.0
  O  O117  1  0.84605750  0.30321000  0.87460250  1.0
  O  O118  1  0.84018000  0.40319000  0.75881000  1.0
  O  O119  1  0.62463000  0.29607000  0.75905000  1.0
  O  O120  1  0.73652000  0.18951000  0.75854000  1.0
  O  O121  1  0.63006000  0.18669000  0.76006000  1.0
  O  O122  1  0.72474000  0.40025000  0.75950000  1.0
  O  O123  1  0.84623000  0.30197000  0.75997000  1.0
  O  O124  1  0.83923750  0.40400750  0.87416000  1.0
  O  O125  1  0.62548750  0.29752750  0.87474000  1.0
  O  O126  1  0.73555000  0.18878000  0.87539000  1.0
  O  O127  1  0.73392000  0.29628000  0.81674000  1.0
