# generated using pymatgen
data_CdC10(BrO)5
_symmetry_space_group_name_H-M   'P 1'
_cell_length_a   14.58960000
_cell_length_b   24.72630000
_cell_length_c   24.84360000
_cell_angle_alpha   76.57100000
_cell_angle_beta   84.24900000
_cell_angle_gamma   89.85300000
_symmetry_Int_Tables_number   1
_chemical_formula_structural   CdC10(BrO)5
_chemical_formula_sum   'Cd8 C80 Br40 O40'
_cell_volume   8671.34691151
_cell_formula_units_Z   8
loop_
 _symmetry_equiv_pos_site_id
 _symmetry_equiv_pos_as_xyz
  1  'x, y, z'
loop_
 _atom_site_type_symbol
 _atom_site_label
 _atom_site_symmetry_multiplicity
 _atom_site_fract_x
 _atom_site_fract_y
 _atom_site_fract_z
 _atom_site_occupancy
  Br  Br0  1  0.33932000  0.28667500  0.47336500  1.0
  Br  Br1  1  0.56258000  0.29340500  0.48206000  1.0
  Br  Br2  1  0.30504500  0.09740000  0.66400000  1.0
  Br  Br3  1  0.53146000  0.09285500  0.66013500  1.0
  Br  Br4  1  0.55570000  0.61022000  0.79250000  1.0
  Br  Br5  1  0.32926000  0.60910000  0.79776000  1.0
  Br  Br6  1  0.55628000  0.37730000  0.78320000  1.0
  Br  Br7  1  0.33446000  0.38256000  0.76798000  1.0
  Br  Br8  1  0.34490000  0.71854000  0.39224000  1.0
  Br  Br9  1  0.57048000  0.71506000  0.39718000  1.0
  Br  Br10  1  0.34316000  0.94174000  0.43054000  1.0
  Br  Br11  1  0.56966000  0.93856000  0.43220000  1.0
  Br  Br12  1  0.34054000  0.41808000  0.19198000  1.0
  Br  Br13  1  0.56632000  0.42002000  0.18942000  1.0
  Br  Br14  1  0.33536000  0.65014000  0.20540000  1.0
  Br  Br15  1  0.55696000  0.64524000  0.22188000  1.0
  Br  Br16  1  0.99980500  0.02426500  0.36056000  1.0
  Br  Br17  1  0.97980500  0.13462000  0.41538000  1.0
  Br  Br18  1  0.87051500  0.88260000  0.57432000  1.0
  Br  Br19  1  0.87416000  0.99100500  0.63273500  1.0
  Br  Br20  1  0.99626000  0.62170000  0.89346000  1.0
  Br  Br21  1  0.02054000  0.62392000  0.02454000  1.0
  Br  Br22  1  0.86598000  0.39208000  0.96584000  1.0
  Br  Br23  1  0.88440000  0.39638000  0.09746000  1.0
  Br  Br24  1  0.85064000  0.29266000  0.84368000  1.0
  Br  Br25  1  0.83436500  0.19100000  0.77592000  1.0
  Br  Br26  1  0.04708000  0.43132000  0.64432000  1.0
  Br  Br27  1  0.04016000  0.32946000  0.58184000  1.0
  Br  Br28  1  0.06300500  0.78220000  0.59366000  1.0
  Br  Br29  1  0.06474000  0.68044000  0.70712000  1.0
  Br  Br30  1  0.83984000  0.64280000  0.49657000  1.0
  Br  Br31  1  0.84298000  0.54129500  0.61010000  1.0
  Br  Br32  1  0.04870500  0.58894000  0.32022000  1.0
  Br  Br33  1  0.07452000  0.69116000  0.38196000  1.0
  Br  Br34  1  0.86514000  0.73500000  0.14894000  1.0
  Br  Br35  1  0.88198000  0.83850000  0.21476000  1.0
  Br  Br36  1  0.81062000  0.46894000  0.38858000  1.0
  Br  Br37  1  0.81456000  0.36644000  0.50026000  1.0
  Br  Br38  1  0.08371000  0.35682000  0.26864000  1.0
  Br  Br39  1  0.10450000  0.26232000  0.38422000  1.0
  C  C40  1  0.63606000  0.19258500  0.57068000  1.0
  C  C41  1  0.92564000  0.22666000  0.65248000  1.0
  C  C42  1  0.23304000  0.19222000  0.56820000  1.0
  C  C43  1  0.94686000  0.27054000  0.48026000  1.0
  C  C44  1  0.93642000  0.10160000  0.54496000  1.0
  C  C45  1  0.64440000  0.49320000  0.78878000  1.0
  C  C46  1  0.95134000  0.57508000  0.70038000  1.0
  C  C47  1  0.24350000  0.49634000  0.78170000  1.0
  C  C48  1  0.94792000  0.40085000  0.76526000  1.0
  C  C49  1  0.93380000  0.50416000  0.88248000  1.0
  C  C50  1  0.65612000  0.82516000  0.41674000  1.0
  C  C51  1  0.97054000  0.79660000  0.32744000  1.0
  C  C52  1  0.25550000  0.83054000  0.41222000  1.0
  C  C53  1  0.94704000  0.75040000  0.50438000  1.0
  C  C54  1  0.94574000  0.91466000  0.44862000  1.0
  C  C55  1  0.24890000  0.53460000  0.19596000  1.0
  C  C56  1  0.94957000  0.62474000  0.21379500  1.0
  C  C57  1  0.64942000  0.53194000  0.20846000  1.0
  C  C58  1  0.94323500  0.44994000  0.28662000  1.0
  C  C59  1  0.95572000  0.51246000  0.10684000  1.0
  C  C60  1  0.33626000  0.19214000  0.56894000  1.0
  C  C61  1  0.37908000  0.15174000  0.60828000  1.0
  C  C62  1  0.47626000  0.15168000  0.60874000  1.0
  C  C63  1  0.53274000  0.19282000  0.57078000  1.0
  C  C64  1  0.48980000  0.23374000  0.53202000  1.0
  C  C65  1  0.39292000  0.23293000  0.53058000  1.0
  C  C66  1  0.54164000  0.49388000  0.78760000  1.0
  C  C67  1  0.49272000  0.44606000  0.78286000  1.0
  C  C68  1  0.39628000  0.44722000  0.77984000  1.0
  C  C69  1  0.34618000  0.49567500  0.78326000  1.0
  C  C70  1  0.39490000  0.54320000  0.78888000  1.0
  C  C71  1  0.49174000  0.54258000  0.79018000  1.0
  C  C72  1  0.35844000  0.82978000  0.41214000  1.0
  C  C73  1  0.40796000  0.87652000  0.41897000  1.0
  C  C74  1  0.50486000  0.87513000  0.42002000  1.0
  C  C75  1  0.55388000  0.82694000  0.41474000  1.0
  C  C76  1  0.50468000  0.78032000  0.40774000  1.0
  C  C77  1  0.40796000  0.78178000  0.40616000  1.0
  C  C78  1  0.35170000  0.53422000  0.19852000  1.0
  C  C79  1  0.39973000  0.58184000  0.20478000  1.0
  C  C80  1  0.49602000  0.58084000  0.20886000  1.0
  C  C81  1  0.54690000  0.53270000  0.20554000  1.0
  C  C82  1  0.49922000  0.48536000  0.19856000  1.0
  C  C83  1  0.40262000  0.48580000  0.19594000  1.0
  C  C84  1  0.93856000  0.96258000  0.47266000  1.0
  C  C85  1  0.90858000  0.95528000  0.52956000  1.0
  C  C86  1  0.90792000  0.00100000  0.55384000  1.0
  C  C87  1  0.93456000  0.05372000  0.52048000  1.0
  C  C88  1  0.95884000  0.06124000  0.46282000  1.0
  C  C89  1  0.96301500  0.01526000  0.43910000  1.0
  C  C90  1  0.93285000  0.50716000  0.94010000  1.0
  C  C91  1  0.90802000  0.45968000  0.98284000  1.0
  C  C92  1  0.91774000  0.46090000  0.03798000  1.0
  C  C93  1  0.95350000  0.50912000  0.04968000  1.0
  C  C94  1  0.97744000  0.55670000  0.00714000  1.0
  C  C95  1  0.96686000  0.55580000  0.95212000  1.0
  C  C96  1  0.95086000  0.35304000  0.74030000  1.0
  C  C97  1  0.99202000  0.36040000  0.68524500  1.0
  C  C98  1  0.98697500  0.31746000  0.65788000  1.0
  C  C99  1  0.93962000  0.26750000  0.68486000  1.0
  C  C100  1  0.89936000  0.25966000  0.73996000  1.0
  C  C101  1  0.90524000  0.30260000  0.76796000  1.0
  C  C102  1  0.94832000  0.70564000  0.55454000  1.0
  C  C103  1  0.90164000  0.65488000  0.55824000  1.0
  C  C104  1  0.90360000  0.61180000  0.60602000  1.0
  C  C105  1  0.95238000  0.61946000  0.64996000  1.0
  C  C106  1  0.00034000  0.66972000  0.64596000  1.0
  C  C107  1  0.99866000  0.71284000  0.59814000  1.0
  C  C108  1  0.96270000  0.67166000  0.23810000  1.0
  C  C109  1  0.92730000  0.72396000  0.21542000  1.0
  C  C110  1  0.93506000  0.76730000  0.24264000  1.0
  C  C111  1  0.97990000  0.75796000  0.29140000  1.0
  C  C112  1  0.01792000  0.70584000  0.31288000  1.0
  C  C113  1  0.00806000  0.66250000  0.28658000  1.0
  C  C114  1  0.94528000  0.40452000  0.33638000  1.0
  C  C115  1  0.00798000  0.36100000  0.33606000  1.0
  C  C116  1  0.01286000  0.31878000  0.38432000  1.0
  C  C117  1  0.95102000  0.31808000  0.43190000  1.0
  C  C118  1  0.89028000  0.36252000  0.43274000  1.0
  C  C119  1  0.88810000  0.40596000  0.38522000  1.0
  Cd  Cd120  1  0.80892000  0.19254000  0.56892000  1.0
  Cd  Cd121  1  0.06024000  0.19322000  0.56686000  1.0
  Cd  Cd122  1  0.81700000  0.49380000  0.78818000  1.0
  Cd  Cd123  1  0.07126000  0.49766000  0.78124000  1.0
  Cd  Cd124  1  0.82678000  0.82250000  0.42060000  1.0
  Cd  Cd125  1  0.08312000  0.83044000  0.41292000  1.0
  Cd  Cd126  1  0.07602000  0.53170000  0.19586000  1.0
  Cd  Cd127  1  0.82201000  0.52810000  0.20836000  1.0
  O  O128  1  0.86496000  0.24862000  0.50056000  1.0
  O  O129  1  0.02360000  0.25408000  0.50222000  1.0
  O  O130  1  0.01408000  0.13040000  0.53714000  1.0
  O  O131  1  0.85852000  0.11616000  0.56846000  1.0
  O  O132  1  0.69302000  0.20400500  0.52520000  1.0
  O  O133  1  0.67946000  0.18090000  0.61562000  1.0
  O  O134  1  0.85508000  0.23398000  0.62282000  1.0
  O  O135  1  0.99568500  0.19562000  0.64286000  1.0
  O  O136  1  0.18100000  0.14728000  0.57712000  1.0
  O  O137  1  0.18480000  0.23748000  0.55854000  1.0
  O  O138  1  0.86632000  0.42024000  0.77703500  1.0
  O  O139  1  0.02614000  0.42750000  0.76390000  1.0
  O  O140  1  0.01412000  0.51210000  0.85282000  1.0
  O  O141  1  0.85676000  0.49182000  0.86435500  1.0
  O  O142  1  0.69990000  0.46804500  0.75836000  1.0
  O  O143  1  0.68894000  0.51830000  0.81952000  1.0
  O  O144  1  0.87056000  0.55830000  0.72734000  1.0
  O  O145  1  0.03026000  0.55348000  0.71480000  1.0
  O  O146  1  0.18846000  0.45424000  0.80610000  1.0
  O  O147  1  0.19862000  0.53918000  0.75654000  1.0
  O  O148  1  0.86664000  0.76748000  0.48790000  1.0
  O  O149  1  0.02710000  0.77040000  0.47834000  1.0
  O  O150  1  0.02856000  0.89606500  0.43868000  1.0
  O  O151  1  0.86862000  0.89124000  0.44186000  1.0
  O  O152  1  0.69754000  0.78508000  0.44904000  1.0
  O  O153  1  0.71358000  0.86356000  0.38646000  1.0
  O  O154  1  0.88932000  0.79620000  0.35550000  1.0
  O  O155  1  0.04694000  0.81456000  0.34174000  1.0
  O  O156  1  0.20130000  0.78850000  0.43790000  1.0
  O  O157  1  0.20974000  0.87298000  0.38690000  1.0
  O  O158  1  0.02246000  0.47316000  0.26280000  1.0
  O  O159  1  0.86308000  0.46554000  0.26898000  1.0
  O  O160  1  0.87568000  0.51560000  0.13488000  1.0
  O  O161  1  0.03608000  0.51782000  0.12482000  1.0
  O  O162  1  0.20566000  0.50790000  0.16596000  1.0
  O  O163  1  0.19186000  0.56052000  0.22484000  1.0
  O  O164  1  0.02292000  0.60876000  0.18692000  1.0
  O  O165  1  0.87524000  0.59336000  0.23260000  1.0
  O  O166  1  0.70576000  0.57314000  0.18312000  1.0
  O  O167  1  0.69302000  0.48918000  0.23498000  1.0
