# generated using pymatgen
data_NaCdH50C71O15
_symmetry_space_group_name_H-M   'P 1'
_cell_length_a   25.67190000
_cell_length_b   36.74890000
_cell_length_c   37.72950000
_cell_angle_alpha   88.51300000
_cell_angle_beta   89.79300000
_cell_angle_gamma   85.69100000
_symmetry_Int_Tables_number   1
_chemical_formula_structural   NaCdH50C71O15
_chemical_formula_sum   'Na4 Cd4 H200 C284 O60'
_cell_volume   35481.92585124
_cell_formula_units_Z   4
loop_
 _symmetry_equiv_pos_site_id
 _symmetry_equiv_pos_as_xyz
  1  'x, y, z'
loop_
 _atom_site_type_symbol
 _atom_site_label
 _atom_site_symmetry_multiplicity
 _atom_site_fract_x
 _atom_site_fract_y
 _atom_site_fract_z
 _atom_site_occupancy
  Na  Na0  1  0.96708000  0.10660000  0.05596000  1.0
  Na  Na1  1  0.94273000  0.87919000  0.96008000  1.0
  Na  Na2  1  0.48234000  0.60248000  0.44114000  1.0
  Na  Na3  1  0.45618000  0.39005000  0.57242000  1.0
  Cd  Cd4  1  0.98858000  0.01984000  0.01381000  1.0
  Cd  Cd5  1  0.91938000  0.97002000  0.98470000  1.0
  Cd  Cd6  1  0.50775000  0.51996000  0.48299000  1.0
  Cd  Cd7  1  0.43785000  0.47072000  0.51546000  1.0
  H  H8  1  0.05505000  0.78976000  0.36452000  1.0
  H  H9  1  0.95180000  0.75063000  0.41890000  1.0
  H  H10  1  0.92066000  0.77622000  0.34222000  1.0
  H  H11  1  0.04058000  0.72093000  0.32509000  1.0
  H  H12  1  0.03701000  0.20900000  0.62705000  1.0
  H  H13  1  0.91681000  0.24289000  0.58061000  1.0
  H  H14  1  0.89074000  0.20977000  0.64972000  1.0
  H  H15  1  0.99841000  0.26526000  0.67723000  1.0
  H  H16  1  0.39572000  0.27124000  0.11682000  1.0
  H  H17  1  0.51345000  0.24389000  0.09459000  1.0
  H  H18  1  0.53678000  0.26449000  0.16845000  1.0
  H  H19  1  0.42420000  0.21514000  0.18717000  1.0
  H  H20  1  0.37853000  0.71960000  0.89264000  1.0
  H  H21  1  0.48217000  0.74773000  0.90748000  1.0
  H  H22  1  0.50913000  0.71925000  0.83353000  1.0
  H  H23  1  0.38885000  0.77585000  0.81520000  1.0
  H  H24  1  0.70727000  0.91674000  0.88177000  1.0
  H  H25  1  0.75549000  0.96837000  0.87518000  1.0
  H  H26  1  0.80845000  0.97696000  0.90601000  1.0
  H  H27  1  0.73577000  0.83920000  0.96854000  1.0
  H  H28  1  0.80018000  0.84443000  0.01012000  1.0
  H  H29  1  0.84219000  0.88289000  0.00869000  1.0
  H  H30  1  0.67512000  0.81115000  0.95303000  1.0
  H  H31  1  0.62902000  0.75912000  0.96080000  1.0
  H  H32  1  0.57852000  0.74839000  0.92899000  1.0
  H  H33  1  0.64802000  0.88619000  0.86346000  1.0
  H  H34  1  0.58148000  0.87742000  0.82137000  1.0
  H  H35  1  0.54204000  0.83754000  0.82513000  1.0
  H  H36  1  0.75134000  0.05752000  0.11083000  1.0
  H  H37  1  0.80717000  0.00320000  0.11342000  1.0
  H  H38  1  0.86174000  0.99560000  0.08198000  1.0
  H  H39  1  0.75991000  0.13280000  0.02194000  1.0
  H  H40  1  0.83526000  0.13698000  0.98975000  1.0
  H  H41  1  0.89524000  0.10970000  0.00428000  1.0
  H  H42  1  0.71027000  0.16965000  0.04546000  1.0
  H  H43  1  0.65948000  0.22459000  0.03963000  1.0
  H  H44  1  0.60916000  0.23767000  0.07270000  1.0
  H  H45  1  0.68921000  0.09145000  0.13133000  1.0
  H  H46  1  0.62488000  0.10426000  0.17606000  1.0
  H  H47  1  0.58254000  0.14714000  0.17441000  1.0
  H  H48  1  0.64415000  0.34343000  0.52717000  1.0
  H  H49  1  0.55885000  0.33964000  0.51066000  1.0
  H  H50  1  0.51064000  0.37898000  0.51269000  1.0
  H  H51  1  0.69322000  0.43333000  0.58665000  1.0
  H  H52  1  0.64714000  0.49124000  0.58163000  1.0
  H  H53  1  0.58463000  0.49769000  0.55788000  1.0
  H  H54  1  0.75452000  0.39900000  0.60787000  1.0
  H  H55  1  0.82948000  0.39006000  0.64477000  1.0
  H  H56  1  0.86539000  0.34485000  0.64958000  1.0
  H  H57  1  0.69693000  0.30869000  0.55199000  1.0
  H  H58  1  0.73920000  0.25072000  0.55341000  1.0
  H  H59  1  0.79746000  0.23994000  0.58112000  1.0
  H  H60  1  0.73973000  0.57371000  0.40023000  1.0
  H  H61  1  0.70394000  0.51697000  0.39876000  1.0
  H  H62  1  0.64307000  0.50844000  0.42267000  1.0
  H  H63  1  0.67303000  0.66010000  0.46549000  1.0
  H  H64  1  0.59546000  0.65542000  0.49637000  1.0
  H  H65  1  0.55762000  0.61506000  0.49210000  1.0
  H  H66  1  0.73042000  0.69236000  0.45023000  1.0
  H  H67  1  0.76681000  0.74852000  0.45402000  1.0
  H  H68  1  0.82630000  0.75798000  0.42928000  1.0
  H  H69  1  0.79892000  0.60578000  0.38518000  1.0
  H  H70  1  0.87529000  0.61312000  0.35168000  1.0
  H  H71  1  0.90711000  0.65632000  0.35122000  1.0
  H  H72  1  0.22653000  0.06657000  0.09223000  1.0
  H  H73  1  0.19243000  0.01025000  0.08950000  1.0
  H  H74  1  0.12727000  0.00477000  0.07149000  1.0
  H  H75  1  0.14160000  0.16563000  0.05536000  1.0
  H  H76  1  0.06603000  0.16593000  0.02288000  1.0
  H  H77  1  0.03795000  0.12386000  0.01005000  1.0
  H  H78  1  0.20252000  0.19533000  0.06925000  1.0
  H  H79  1  0.23638000  0.25263000  0.07511000  1.0
  H  H80  1  0.29780000  0.25706000  0.09923000  1.0
  H  H81  1  0.28640000  0.09623000  0.10893000  1.0
  H  H82  1  0.36408000  0.09737000  0.14130000  1.0
  H  H83  1  0.38947000  0.14046000  0.15407000  1.0
  H  H84  1  0.18252000  0.88739000  0.98658000  1.0
  H  H85  1  0.14289000  0.91797000  0.03587000  1.0
  H  H86  1  0.07734000  0.94190000  0.03226000  1.0
  H  H87  1  0.10930000  0.89787000  0.88373000  1.0
  H  H88  1  0.02280000  0.91746000  0.87620000  1.0
  H  H89  1  0.98195000  0.93401000  0.91366000  1.0
  H  H90  1  0.16651000  0.86478000  0.86279000  1.0
  H  H91  1  0.19911000  0.83624000  0.81266000  1.0
  H  H92  1  0.26046000  0.80699000  0.81389000  1.0
  H  H93  1  0.24348000  0.85299000  0.96466000  1.0
  H  H94  1  0.32347000  0.81635000  0.97140000  1.0
  H  H95  1  0.35314000  0.79086000  0.93406000  1.0
  H  H96  1  0.27656000  0.63690000  0.49616000  1.0
  H  H97  1  0.33416000  0.62058000  0.54384000  1.0
  H  H98  1  0.38651000  0.58374000  0.53948000  1.0
  H  H99  1  0.27990000  0.57247000  0.40186000  1.0
  H  H100  1  0.35359000  0.53523000  0.38744000  1.0
  H  H101  1  0.41242000  0.53989000  0.41551000  1.0
  H  H102  1  0.22637000  0.60802000  0.37813000  1.0
  H  H103  1  0.17423000  0.62394000  0.32859000  1.0
  H  H104  1  0.12755000  0.66451000  0.32867000  1.0
  H  H105  1  0.21407000  0.66915000  0.47490000  1.0
  H  H106  1  0.15171000  0.71933000  0.48034000  1.0
  H  H107  1  0.10883000  0.73485000  0.44283000  1.0
  H  H108  1  0.19959000  0.41830000  0.58709000  1.0
  H  H109  1  0.23359000  0.47498000  0.58746000  1.0
  H  H110  1  0.29875000  0.48202000  0.56905000  1.0
  H  H111  1  0.28403000  0.32348000  0.54380000  1.0
  H  H112  1  0.36374000  0.32782000  0.51394000  1.0
  H  H113  1  0.39428000  0.37144000  0.50913000  1.0
  H  H114  1  0.22242000  0.29214000  0.55746000  1.0
  H  H115  1  0.18604000  0.23479000  0.56091000  1.0
  H  H116  1  0.12479000  0.22892000  0.58546000  1.0
  H  H117  1  0.13873000  0.38809000  0.59922000  1.0
  H  H118  1  0.06285000  0.38551000  0.63225000  1.0
  H  H119  1  0.03668000  0.34206000  0.64488000  1.0
  H  H120  1  0.93597000  0.85277000  0.44878000  1.0
  H  H121  1  0.92669000  0.90891000  0.48289000  1.0
  H  H122  1  0.07730000  0.93745000  0.44335000  1.0
  H  H123  1  0.08284000  0.88412000  0.40646000  1.0
  H  H124  1  0.96814000  0.99473000  0.56883000  1.0
  H  H125  1  0.02340000  0.99130000  0.44346000  1.0
  H  H126  1  0.02705000  0.03463000  0.59384000  1.0
  H  H127  1  0.02264000  0.09202000  0.62516000  1.0
  H  H128  1  0.95691000  0.14854000  0.53203000  1.0
  H  H129  1  0.95779000  0.09084000  0.50148000  1.0
  H  H130  1  0.01659000  0.06871000  0.45386000  1.0
  H  H131  1  0.06199000  0.07225000  0.49039000  1.0
  H  H132  1  0.13946000  0.05156000  0.41070000  1.0
  H  H133  1  0.11982000  0.08837000  0.43918000  1.0
  H  H134  1  0.07484000  0.07273000  0.40614000  1.0
  H  H135  1  0.93254000  0.92547000  0.54949000  1.0
  H  H136  1  0.99281000  0.90076000  0.53543000  1.0
  H  H137  1  0.99623000  0.90723000  0.63243000  1.0
  H  H138  1  0.98879000  0.87501000  0.59833000  1.0
  H  H139  1  0.93542000  0.90885000  0.60950000  1.0
  H  H140  1  0.50298000  0.62022000  0.91312000  1.0
  H  H141  1  0.51378000  0.56942000  0.95667000  1.0
  H  H142  1  0.34886000  0.58284000  0.98063000  1.0
  H  H143  1  0.33752000  0.63111000  0.93495000  1.0
  H  H144  1  0.50135000  0.48638000  0.05726000  1.0
  H  H145  1  0.37130000  0.51833000  0.96308000  1.0
  H  H146  1  0.44902000  0.45729000  0.10127000  1.0
  H  H147  1  0.44743000  0.39954000  0.13442000  1.0
  H  H148  1  0.42144000  0.34370000  0.03763000  1.0
  H  H149  1  0.42766000  0.40126000  0.00364000  1.0
  H  H150  1  0.35595000  0.43986000  0.97711000  1.0
  H  H151  1  0.33832000  0.44222000  0.02385000  1.0
  H  H152  1  0.22638000  0.48279000  0.97470000  1.0
  H  H153  1  0.24923000  0.44258000  0.99953000  1.0
  H  H154  1  0.27099000  0.45033000  0.95379000  1.0
  H  H155  1  0.54864000  0.54562000  0.02127000  1.0
  H  H156  1  0.49854000  0.58307000  0.02408000  1.0
  H  H157  1  0.55530000  0.56921000  0.11220000  1.0
  H  H158  1  0.55125000  0.60064000  0.07502000  1.0
  H  H159  1  0.59247000  0.55771000  0.07343000  1.0
  H  H160  1  0.93324000  0.85297000  0.12675000  1.0
  H  H161  1  0.90965000  0.85607000  0.06892000  1.0
  H  H162  1  0.91788000  0.89569000  0.04031000  1.0
  H  H163  1  0.99713000  0.94101000  0.18104000  1.0
  H  H164  1  0.00969000  0.99647000  0.15358000  1.0
  H  H165  1  0.98988000  0.00739000  0.10780000  1.0
  H  H166  1  0.00791000  0.90782000  0.22565000  1.0
  H  H167  1  0.02852000  0.90123000  0.28659000  1.0
  H  H168  1  0.01499000  0.85947000  0.31195000  1.0
  H  H169  1  0.94925000  0.81860000  0.16873000  1.0
  H  H170  1  0.92885000  0.76412000  0.19801000  1.0
  H  H171  1  0.93881000  0.75798000  0.24640000  1.0
  H  H172  1  0.97416000  0.04827000  0.81332000  1.0
  H  H173  1  0.00168000  0.99129000  0.84071000  1.0
  H  H174  1  0.00721000  0.98900000  0.88970000  1.0
  H  H175  1  0.92226000  0.14062000  0.87665000  1.0
  H  H176  1  0.89625000  0.13223000  0.93528000  1.0
  H  H177  1  0.90027000  0.08486000  0.95421000  1.0
  H  H178  1  0.92303000  0.17422000  0.83350000  1.0
  H  H179  1  0.89833000  0.23135000  0.80747000  1.0
  H  H180  1  0.90486000  0.23918000  0.75910000  1.0
  H  H181  1  0.98839000  0.08408000  0.77208000  1.0
  H  H182  1  0.00214000  0.09009000  0.71111000  1.0
  H  H183  1  0.98442000  0.13289000  0.68662000  1.0
  H  H184  1  0.50647000  0.34217000  0.38589000  1.0
  H  H185  1  0.54051000  0.35208000  0.44220000  1.0
  H  H186  1  0.54129000  0.39968000  0.45771000  1.0
  H  H187  1  0.45399000  0.43368000  0.31787000  1.0
  H  H188  1  0.43075000  0.49081000  0.34060000  1.0
  H  H189  1  0.43518000  0.49552000  0.38884000  1.0
  H  H190  1  0.43462000  0.39856000  0.27940000  1.0
  H  H191  1  0.41939000  0.39287000  0.21826000  1.0
  H  H192  1  0.43880000  0.35022000  0.19569000  1.0
  H  H193  1  0.50703000  0.30914000  0.34297000  1.0
  H  H194  1  0.53223000  0.25247000  0.31824000  1.0
  H  H195  1  0.52428000  0.24533000  0.27024000  1.0
  H  H196  1  0.43287000  0.55625000  0.67910000  1.0
  H  H197  1  0.42146000  0.49919000  0.65678000  1.0
  H  H198  1  0.43871000  0.48723000  0.61120000  1.0
  H  H199  1  0.48960000  0.64333000  0.61501000  1.0
  H  H200  1  0.51176000  0.63793000  0.55714000  1.0
  H  H201  1  0.50316000  0.59693000  0.53268000  1.0
  H  H202  1  0.47784000  0.67876000  0.65513000  1.0
  H  H203  1  0.49638000  0.73495000  0.67856000  1.0
  H  H204  1  0.48726000  0.74353000  0.72631000  1.0
  H  H205  1  0.42321000  0.59149000  0.72109000  1.0
  H  H206  1  0.40468000  0.59979000  0.78149000  1.0
  H  H207  1  0.41688000  0.64245000  0.80312000  1.0
  C  C208  1  0.95614000  0.03050000  0.93546000  1.0
  C  C209  1  0.06590000  0.05569000  0.03480000  1.0
  C  C210  1  0.89727000  0.04361000  0.03519000  1.0
  C  C211  1  0.95635000  0.95917000  0.06079000  1.0
  C  C212  1  0.84190000  0.93671000  0.96124000  1.0
  C  C213  1  0.01240000  0.94229000  0.97975000  1.0
  C  C214  1  0.47766000  0.45476000  0.43887000  1.0
  C  C215  1  0.58495000  0.55386000  0.46015000  1.0
  C  C216  1  0.41562000  0.54938000  0.48208000  1.0
  C  C217  1  0.46946000  0.53312000  0.55910000  1.0
  C  C218  1  0.36053000  0.43473000  0.53485000  1.0
  C  C219  1  0.52825000  0.44516000  0.53412000  1.0
  C  C220  1  0.02628000  0.82594000  0.41912000  1.0
  C  C221  1  0.02154000  0.78166000  0.37993000  1.0
  C  C222  1  0.95678000  0.73705000  0.39363000  1.0
  C  C223  1  0.87319000  0.71675000  0.38238000  1.0
  C  C224  1  0.94950000  0.81218000  0.28982000  1.0
  C  C225  1  0.96074000  0.76946000  0.33455000  1.0
  C  C226  1  0.02969000  0.72180000  0.35293000  1.0
  C  C227  1  0.11393000  0.71074000  0.37820000  1.0
  C  C228  1  0.99192000  0.75190000  0.36514000  1.0
  C  C229  1  0.01488000  0.15764000  0.58971000  1.0
  C  C230  1  0.99692000  0.20925000  0.61780000  1.0
  C  C231  1  0.92325000  0.25627000  0.60541000  1.0
  C  C232  1  0.84098000  0.28427000  0.62225000  1.0
  C  C233  1  0.91863000  0.18692000  0.71268000  1.0
  C  C234  1  0.92661000  0.21880000  0.66061000  1.0
  C  C235  1  0.99096000  0.26601000  0.64888000  1.0
  C  C236  1  0.07812000  0.27651000  0.62972000  1.0
  C  C237  1  0.95873000  0.23768000  0.63331000  1.0
  C  C238  1  0.41921000  0.33655000  0.11077000  1.0
  C  C239  1  0.43404000  0.27649000  0.12697000  1.0
  C  C240  1  0.50446000  0.22830000  0.11854000  1.0
  C  C241  1  0.58986000  0.20236000  0.13044000  1.0
  C  C242  1  0.50491000  0.29804000  0.22212000  1.0
  C  C243  1  0.49668000  0.26032000  0.17541000  1.0
  C  C244  1  0.43176000  0.21747000  0.15886000  1.0
  C  C245  1  0.34603000  0.20665000  0.14066000  1.0
  C  C246  1  0.46681000  0.24559000  0.14514000  1.0
  C  C247  1  0.41118000  0.65265000  0.88859000  1.0
  C  C248  1  0.41288000  0.71286000  0.87636000  1.0
  C  C249  1  0.47372000  0.76087000  0.88168000  1.0
  C  C250  1  0.55686000  0.78169000  0.86923000  1.0
  C  C251  1  0.47918000  0.69246000  0.77579000  1.0
  C  C252  1  0.46896000  0.72680000  0.82579000  1.0
  C  C253  1  0.39669000  0.77202000  0.84343000  1.0
  C  C254  1  0.31373000  0.78570000  0.86985000  1.0
  C  C255  1  0.43778000  0.74340000  0.85643000  1.0
  C  C256  1  0.76785000  0.92778000  0.91786000  1.0
  C  C257  1  0.72753000  0.90697000  0.90558000  1.0
  C  C258  1  0.77807000  0.95971000  0.89864000  1.0
  C  C259  1  0.78465000  0.88310000  0.96614000  1.0
  C  C260  1  0.74358000  0.86350000  0.95360000  1.0
  C  C261  1  0.81092000  0.86942000  0.99679000  1.0
  C  C262  1  0.61821000  0.79802000  0.91637000  1.0
  C  C263  1  0.65639000  0.82009000  0.92858000  1.0
  C  C264  1  0.60795000  0.76648000  0.93644000  1.0
  C  C265  1  0.60128000  0.84067000  0.86633000  1.0
  C  C266  1  0.64071000  0.86195000  0.87885000  1.0
  C  C267  1  0.57339000  0.85238000  0.83558000  1.0
  C  C268  1  0.79758000  0.91582000  0.94836000  1.0
  C  C269  1  0.71394000  0.87453000  0.92312000  1.0
  C  C270  1  0.59109000  0.80788000  0.88461000  1.0
  C  C271  1  0.66995000  0.85208000  0.90995000  1.0
  C  C272  1  0.81472000  0.04709000  0.07453000  1.0
  C  C273  1  0.77003000  0.06770000  0.08726000  1.0
  C  C274  1  0.82939000  0.01329000  0.09110000  1.0
  C  C275  1  0.82428000  0.09442000  0.02934000  1.0
  C  C276  1  0.77525000  0.11035000  0.03851000  1.0
  C  C277  1  0.85330000  0.11407000  0.00540000  1.0
  C  C278  1  0.65215000  0.18437000  0.08257000  1.0
  C  C279  1  0.69123000  0.16010000  0.06889000  1.0
  C  C280  1  0.63954000  0.21766000  0.06406000  1.0
  C  C281  1  0.63963000  0.14076000  0.13135000  1.0
  C  C282  1  0.67932000  0.11682000  0.11695000  1.0
  C  C283  1  0.61421000  0.13024000  0.16266000  1.0
  C  C284  1  0.84445000  0.06130000  0.04609000  1.0
  C  C285  1  0.75006000  0.10045000  0.07013000  1.0
  C  C286  1  0.62656000  0.17489000  0.11430000  1.0
  C  C287  1  0.70581000  0.12561000  0.08535000  1.0
  C  C288  1  0.58861000  0.38809000  0.53252000  1.0
  C  C289  1  0.63730000  0.36952000  0.53912000  1.0
  C  C290  1  0.55010000  0.36781000  0.51817000  1.0
  C  C291  1  0.62045000  0.44202000  0.55910000  1.0
  C  C292  1  0.66548000  0.42043000  0.57069000  1.0
  C  C293  1  0.61668000  0.47920000  0.56697000  1.0
  C  C294  1  0.79731000  0.34734000  0.61456000  1.0
  C  C295  1  0.75670000  0.37093000  0.59997000  1.0
  C  C296  1  0.83290000  0.36152000  0.63777000  1.0
  C  C297  1  0.76443000  0.29681000  0.58247000  1.0
  C  C298  1  0.72443000  0.32079000  0.56860000  1.0
  C  C299  1  0.76718000  0.26018000  0.57198000  1.0
  C  C300  1  0.57994000  0.42534000  0.54140000  1.0
  C  C301  1  0.67431000  0.38339000  0.56163000  1.0
  C  C302  1  0.80080000  0.31001000  0.60597000  1.0
  C  C303  1  0.71946000  0.35847000  0.57640000  1.0
  C  C304  1  0.66999000  0.56311000  0.42805000  1.0
  C  C305  1  0.71044000  0.58532000  0.41798000  1.0
  C  C306  1  0.67209000  0.52735000  0.41563000  1.0
  C  C307  1  0.63078000  0.61287000  0.46302000  1.0
  C  C308  1  0.67301000  0.63365000  0.45388000  1.0
  C  C309  1  0.59223000  0.62856000  0.48544000  1.0
  C  C310  1  0.79772000  0.70385000  0.42117000  1.0
  C  C311  1  0.75897000  0.68095000  0.43190000  1.0
  C  C312  1  0.79691000  0.73900000  0.43544000  1.0
  C  C313  1  0.83712000  0.65500000  0.38472000  1.0
  C  C314  1  0.79746000  0.63273000  0.39584000  1.0
  C  C315  1  0.87551000  0.64080000  0.36106000  1.0
  C  C316  1  0.62856000  0.57710000  0.45002000  1.0
  C  C317  1  0.71320000  0.62108000  0.43054000  1.0
  C  C318  1  0.83656000  0.69110000  0.39686000  1.0
  C  C319  1  0.75704000  0.64506000  0.41937000  1.0
  C  C320  1  0.15329000  0.06024000  0.06741000  1.0
  C  C321  1  0.19382000  0.08119000  0.07904000  1.0
  C  C322  1  0.15789000  0.02271000  0.07599000  1.0
  C  C323  1  0.10690000  0.11631000  0.04448000  1.0
  C  C324  1  0.14663000  0.13636000  0.05850000  1.0
  C  C325  1  0.06719000  0.13629000  0.02515000  1.0
  C  C326  1  0.27114000  0.20176000  0.09870000  1.0
  C  C327  1  0.23325000  0.18064000  0.08428000  1.0
  C  C328  1  0.26796000  0.23958000  0.09111000  1.0
  C  C329  1  0.31788000  0.14590000  0.12190000  1.0
  C  C330  1  0.28011000  0.12546000  0.10628000  1.0
  C  C331  1  0.35971000  0.12699000  0.14024000  1.0
  C  C332  1  0.10912000  0.07745000  0.04896000  1.0
  C  C333  1  0.19179000  0.11961000  0.07506000  1.0
  C  C334  1  0.31208000  0.18450000  0.11956000  1.0
  C  C335  1  0.23540000  0.14210000  0.08872000  1.0
  C  C336  1  0.10636000  0.91553000  0.98416000  1.0
  C  C337  1  0.15016000  0.89556000  0.96922000  1.0
  C  C338  1  0.10860000  0.92547000  0.01971000  1.0
  C  C339  1  0.06291000  0.91633000  0.92683000  1.0
  C  C340  1  0.10913000  0.90027000  0.91208000  1.0
  C  C341  1  0.01948000  0.92256000  0.90449000  1.0
  C  C342  1  0.23545000  0.83032000  0.86481000  1.0
  C  C343  1  0.19705000  0.85399000  0.88034000  1.0
  C  C344  1  0.23151000  0.82379000  0.82829000  1.0
  C  C345  1  0.28016000  0.82356000  0.92191000  1.0
  C  C346  1  0.24046000  0.84740000  0.93683000  1.0
  C  C347  1  0.32141000  0.80919000  0.94368000  1.0
  C  C348  1  0.06109000  0.92491000  0.96325000  1.0
  C  C349  1  0.15230000  0.88684000  0.93284000  1.0
  C  C350  1  0.27691000  0.81408000  0.88570000  1.0
  C  C351  1  0.19752000  0.86292000  0.91655000  1.0
  C  C352  1  0.33773000  0.59459000  0.49272000  1.0
  C  C353  1  0.29336000  0.61569000  0.47950000  1.0
  C  C354  1  0.35440000  0.60025000  0.52735000  1.0
  C  C355  1  0.34254000  0.56227000  0.43753000  1.0
  C  C356  1  0.29503000  0.58014000  0.42693000  1.0
  C  C357  1  0.37064000  0.54243000  0.41245000  1.0
  C  C358  1  0.17239000  0.65390000  0.37779000  1.0
  C  C359  1  0.21046000  0.62990000  0.39418000  1.0
  C  C360  1  0.15722000  0.64726000  0.34283000  1.0
  C  C361  1  0.16464000  0.68844000  0.43229000  1.0
  C  C362  1  0.20346000  0.66419000  0.44795000  1.0
  C  C363  1  0.14054000  0.71626000  0.45287000  1.0
  C  C364  1  0.36431000  0.56841000  0.47093000  1.0
  C  C365  1  0.27165000  0.60957000  0.44585000  1.0
  C  C366  1  0.15035000  0.68394000  0.39660000  1.0
  C  C367  1  0.22767000  0.63455000  0.42939000  1.0
  C  C368  1  0.27278000  0.42697000  0.56378000  1.0
  C  C369  1  0.23215000  0.40493000  0.57337000  1.0
  C  C370  1  0.26816000  0.46369000  0.57367000  1.0
  C  C371  1  0.32026000  0.37372000  0.53844000  1.0
  C  C372  1  0.27940000  0.35220000  0.54933000  1.0
  C  C373  1  0.36235000  0.35673000  0.51965000  1.0
  C  C374  1  0.15298000  0.28366000  0.58673000  1.0
  C  C375  1  0.19154000  0.30559000  0.57287000  1.0
  C  C376  1  0.15511000  0.24665000  0.57778000  1.0
  C  C377  1  0.10729000  0.33793000  0.61151000  1.0
  C  C378  1  0.14509000  0.35914000  0.59612000  1.0
  C  C379  1  0.06633000  0.35598000  0.63066000  1.0
  C  C380  1  0.31732000  0.41163000  0.54569000  1.0
  C  C381  1  0.23398000  0.36715000  0.56655000  1.0
  C  C382  1  0.11237000  0.29957000  0.60836000  1.0
  C  C383  1  0.18987000  0.34366000  0.57850000  1.0
  C  C384  1  0.01182000  0.86372000  0.42725000  1.0
  C  C385  1  0.96604000  0.87196000  0.44680000  1.0
  C  C386  1  0.96127000  0.90338000  0.46679000  1.0
  C  C387  1  0.00247000  0.92638000  0.46715000  1.0
  C  C388  1  0.04550000  0.91966000  0.44436000  1.0
  C  C389  1  0.04916000  0.88912000  0.42359000  1.0
  C  C390  1  0.99993000  0.95930000  0.48871000  1.0
  C  C391  1  0.98693000  0.95964000  0.52535000  1.0
  C  C392  1  0.98337000  0.99323000  0.54199000  1.0
  C  C393  1  0.00021000  0.02479000  0.52514000  1.0
  C  C394  1  0.02001000  0.02300000  0.49007000  1.0
  C  C395  1  0.01428000  0.99132000  0.47156000  1.0
  C  C396  1  0.99468000  0.05887000  0.54478000  1.0
  C  C397  1  0.01015000  0.05915000  0.58046000  1.0
  C  C398  1  0.00725000  0.09183000  0.59843000  1.0
  C  C399  1  0.99092000  0.12451000  0.58039000  1.0
  C  C400  1  0.96948000  0.12355000  0.54639000  1.0
  C  C401  1  0.97157000  0.09080000  0.52855000  1.0
  C  C402  1  0.04655000  0.05357000  0.47101000  1.0
  C  C403  1  0.10593000  0.06435000  0.42578000  1.0
  C  C404  1  0.97584000  0.92609000  0.54773000  1.0
  C  C405  1  0.97836000  0.90359000  0.60611000  1.0
  C  C406  1  0.41921000  0.62875000  0.92034000  1.0
  C  C407  1  0.46932000  0.61252000  0.92821000  1.0
  C  C408  1  0.47559000  0.58379000  0.95330000  1.0
  C  C409  1  0.43206000  0.57216000  0.97193000  1.0
  C  C410  1  0.38294000  0.59105000  0.96633000  1.0
  C  C411  1  0.37635000  0.61861000  0.94029000  1.0
  C  C412  1  0.43501000  0.53725000  0.99289000  1.0
  C  C413  1  0.47119000  0.52863000  0.02071000  1.0
  C  C414  1  0.47160000  0.49405000  0.03756000  1.0
  C  C415  1  0.43356000  0.46963000  0.03030000  1.0
  C  C416  1  0.39390000  0.48015000  0.00523000  1.0
  C  C417  1  0.39829000  0.51220000  0.98487000  1.0
  C  C418  1  0.43596000  0.43401000  0.04997000  1.0
  C  C419  1  0.44374000  0.43272000  0.08687000  1.0
  C  C420  1  0.44243000  0.39992000  0.10588000  1.0
  C  C421  1  0.43199000  0.36803000  0.08869000  1.0
  C  C422  1  0.42828000  0.36827000  0.05158000  1.0
  C  C423  1  0.43101000  0.40124000  0.03222000  1.0
  C  C424  1  0.34664000  0.45845000  0.99947000  1.0
  C  C425  1  0.26083000  0.46319000  0.97950000  1.0
  C  C426  1  0.51007000  0.55461000  0.03308000  1.0
  C  C427  1  0.55487000  0.57118000  0.08279000  1.0
  C  C428  1  0.94172000  0.90096000  0.09599000  1.0
  C  C429  1  0.94673000  0.87991000  0.12752000  1.0
  C  C430  1  0.92168000  0.88378000  0.06658000  1.0
  C  C431  1  0.97842000  0.95120000  0.12658000  1.0
  C  C432  1  0.98276000  0.92892000  0.15760000  1.0
  C  C433  1  0.99372000  0.98708000  0.12904000  1.0
  C  C434  1  0.99225000  0.86052000  0.25597000  1.0
  C  C435  1  0.99294000  0.88128000  0.22422000  1.0
  C  C436  1  0.01249000  0.87470000  0.28691000  1.0
  C  C437  1  0.95658000  0.81111000  0.22408000  1.0
  C  C438  1  0.95946000  0.83185000  0.19254000  1.0
  C  C439  1  0.93993000  0.77560000  0.22290000  1.0
  C  C440  1  0.95827000  0.93718000  0.09481000  1.0
  C  C441  1  0.96836000  0.89261000  0.15867000  1.0
  C  C442  1  0.96985000  0.82652000  0.25626000  1.0
  C  C443  1  0.97376000  0.86841000  0.19210000  1.0
  C  C444  1  0.96965000  0.03873000  0.86898000  1.0
  C  C445  1  0.96508000  0.06110000  0.83820000  1.0
  C  C446  1  0.99270000  0.00340000  0.86621000  1.0
  C  C447  1  0.93427000  0.08977000  0.90321000  1.0
  C  C448  1  0.93591000  0.11258000  0.87322000  1.0
  C  C449  1  0.91014000  0.10369000  0.93342000  1.0
  C  C450  1  0.92782000  0.18370000  0.77835000  1.0
  C  C451  1  0.93380000  0.16147000  0.80896000  1.0
  C  C452  1  0.90868000  0.22030000  0.78170000  1.0
  C  C453  1  0.96562000  0.13310000  0.74347000  1.0
  C  C454  1  0.97036000  0.11133000  0.77454000  1.0
  C  C455  1  0.98453000  0.11790000  0.71166000  1.0
  C  C456  1  0.95377000  0.05301000  0.90204000  1.0
  C  C457  1  0.95148000  0.09908000  0.83992000  1.0
  C  C458  1  0.94072000  0.16879000  0.74508000  1.0
  C  C459  1  0.95177000  0.12416000  0.80750000  1.0
  C  C460  1  0.49961000  0.39415000  0.40934000  1.0
  C  C461  1  0.49431000  0.37051000  0.38103000  1.0
  C  C462  1  0.52737000  0.38080000  0.43907000  1.0
  C  C463  1  0.46370000  0.44441000  0.37229000  1.0
  C  C464  1  0.46467000  0.42131000  0.34329000  1.0
  C  C465  1  0.44321000  0.47982000  0.36650000  1.0
  C  C466  1  0.45811000  0.35028000  0.25227000  1.0
  C  C467  1  0.45383000  0.37158000  0.28266000  1.0
  C  C468  1  0.43800000  0.36535000  0.22001000  1.0
  C  C469  1  0.49928000  0.29989000  0.28817000  1.0
  C  C470  1  0.49407000  0.32167000  0.31814000  1.0
  C  C471  1  0.52037000  0.26368000  0.29231000  1.0
  C  C472  1  0.48079000  0.43120000  0.40637000  1.0
  C  C473  1  0.47697000  0.38350000  0.34718000  1.0
  C  C474  1  0.48396000  0.31493000  0.25468000  1.0
  C  C475  1  0.47461000  0.35864000  0.31580000  1.0
  C  C476  1  0.44894000  0.54413000  0.62490000  1.0
  C  C477  1  0.44544000  0.56764000  0.65416000  1.0
  C  C478  1  0.43534000  0.50809000  0.63092000  1.0
  C  C479  1  0.48208000  0.59369000  0.58897000  1.0
  C  C480  1  0.47765000  0.61607000  0.61869000  1.0
  C  C481  1  0.50033000  0.61000000  0.55769000  1.0
  C  C482  1  0.47091000  0.68889000  0.70986000  1.0
  C  C483  1  0.46822000  0.66654000  0.68031000  1.0
  C  C484  1  0.48622000  0.72460000  0.70473000  1.0
  C  C485  1  0.43804000  0.64040000  0.74701000  1.0
  C  C486  1  0.43718000  0.61822000  0.71708000  1.0
  C  C487  1  0.41952000  0.62667000  0.77937000  1.0
  C  C488  1  0.46708000  0.55699000  0.59127000  1.0
  C  C489  1  0.45864000  0.60430000  0.65172000  1.0
  C  C490  1  0.45864000  0.67512000  0.74396000  1.0
  C  C491  1  0.45461000  0.62986000  0.68332000  1.0
  O  O492  1  0.07148000  0.02265000  0.02247000  1.0
  O  O493  1  0.01677000  0.06672000  0.03407000  1.0
  O  O494  1  0.90461000  0.01490000  0.01546000  1.0
  O  O495  1  0.94005000  0.05833000  0.03977000  1.0
  O  O496  1  0.98458000  0.04087000  0.96215000  1.0
  O  O497  1  0.92563000  0.00323000  0.93958000  1.0
  O  O498  1  0.83782000  0.97084000  0.97035000  1.0
  O  O499  1  0.88980000  0.92335000  0.96521000  1.0
  O  O500  1  0.99981000  0.97767000  0.97723000  1.0
  O  O501  1  0.97059000  0.92457000  0.98348000  1.0
  O  O502  1  0.91681000  0.95764000  0.03864000  1.0
  O  O503  1  0.99473000  0.97961000  0.05250000  1.0
  O  O504  1  0.59029000  0.52554000  0.48176000  1.0
  O  O505  1  0.53644000  0.55989000  0.45052000  1.0
  O  O506  1  0.42711000  0.51401000  0.47887000  1.0
  O  O507  1  0.45798000  0.56680000  0.48114000  1.0
  O  O508  1  0.50580000  0.48353000  0.44076000  1.0
  O  O509  1  0.44775000  0.44562000  0.46600000  1.0
  O  O510  1  0.35525000  0.46443000  0.51496000  1.0
  O  O511  1  0.40891000  0.42742000  0.54344000  1.0
  O  O512  1  0.52017000  0.47456000  0.51403000  1.0
  O  O513  1  0.48435000  0.43341000  0.54472000  1.0
  O  O514  1  0.43172000  0.51160000  0.55276000  1.0
  O  O515  1  0.50806000  0.53513000  0.53596000  1.0
  O  O516  1  0.06435000  0.81023000  0.43397000  1.0
  O  O517  1  0.99281000  0.80768000  0.39897000  1.0
  O  O518  1  0.92547000  0.71010000  0.38674000  1.0
  O  O519  1  0.85523000  0.74437000  0.36673000  1.0
  O  O520  1  0.90411000  0.82140000  0.29759000  1.0
  O  O521  1  0.98401000  0.79609000  0.31463000  1.0
  O  O522  1  0.06260000  0.70479000  0.37705000  1.0
  O  O523  1  0.13084000  0.73720000  0.36295000  1.0
  O  O524  1  0.06243000  0.15548000  0.59366000  1.0
  O  O525  1  0.98777000  0.19159000  0.58677000  1.0
  O  O526  1  0.89177000  0.28619000  0.61315000  1.0
  O  O527  1  0.82758000  0.26116000  0.64357000  1.0
  O  O528  1  0.87089000  0.18925000  0.70945000  1.0
  O  O529  1  0.95175000  0.19466000  0.68474000  1.0
  O  O530  1  0.02525000  0.28175000  0.62674000  1.0
  O  O531  1  0.09807000  0.25302000  0.65006000  1.0
  O  O532  1  0.37787000  0.33870000  0.12729000  1.0
  O  O533  1  0.45717000  0.30809000  0.11677000  1.0
  O  O534  1  0.53769000  0.19948000  0.12842000  1.0
  O  O535  1  0.60733000  0.22860000  0.14422000  1.0
  O  O536  1  0.55064000  0.30241000  0.21474000  1.0
  O  O537  1  0.47075000  0.28529000  0.19753000  1.0
  O  O538  1  0.39850000  0.20350000  0.13595000  1.0
  O  O539  1  0.32604000  0.22844000  0.16166000  1.0
  O  O540  1  0.37931000  0.64537000  0.86626000  1.0
  O  O541  1  0.44342000  0.68059000  0.88268000  1.0
  O  O542  1  0.50409000  0.78752000  0.87038000  1.0
  O  O543  1  0.57718000  0.75382000  0.85655000  1.0
  O  O544  1  0.52680000  0.69292000  0.77804000  1.0
  O  O545  1  0.44632000  0.70230000  0.80413000  1.0
  O  O546  1  0.36540000  0.79062000  0.86694000  1.0
  O  O547  1  0.29639000  0.75812000  0.85855000  1.0
  O  O548  1  0.99865000  0.92871000  0.58172000  1.0
  O  O549  1  0.08909000  0.03829000  0.45067000  1.0
  O  O550  1  0.51182000  0.55328000  0.07064000  1.0
  O  O551  1  0.30218000  0.48271000  0.99193000  1.0
