# generated using pymatgen
data_Zn2C12(N2O5)3
_symmetry_space_group_name_H-M   'P 1'
_cell_length_a   12.96450000
_cell_length_b   25.88599126
_cell_length_c   25.88560000
_cell_angle_alpha   120.00050000
_cell_angle_beta   90.00000000
_cell_angle_gamma   90.00000000
_symmetry_Int_Tables_number   1
_chemical_formula_structural   Zn2C12(N2O5)3
_chemical_formula_sum   'Zn12 C72 N36 O90'
_cell_volume   7523.28045227
_cell_formula_units_Z   6
loop_
 _symmetry_equiv_pos_site_id
 _symmetry_equiv_pos_as_xyz
  1  'x, y, z'
loop_
 _atom_site_type_symbol
 _atom_site_label
 _atom_site_symmetry_multiplicity
 _atom_site_fract_x
 _atom_site_fract_y
 _atom_site_fract_z
 _atom_site_occupancy
  C  C0  1  0.68414000  0.86176000  0.27598000  1.0
  C  C1  1  0.96647750  0.90845000  0.20904250  1.0
  C  C2  1  0.86409750  0.80688000  0.33708250  1.0
  C  C3  1  0.32677000  0.81915000  0.22107000  1.0
  C  C4  1  0.02729000  0.74134000  0.19629500  1.0
  C  C5  1  0.22696500  0.76455000  0.07237000  1.0
  C  C6  1  0.39374000  0.24732000  0.40449000  1.0
  C  C7  1  0.67928250  0.25100750  0.35361750  1.0
  C  C8  1  0.53961500  0.31232750  0.53030500  1.0
  C  C9  1  0.03246000  0.20800250  0.41162250  1.0
  C  C10  1  0.71016000  0.18053000  0.47813250  1.0
  C  C11  1  0.86380500  0.11695000  0.29082000  1.0
  C  C12  1  0.00520000  0.47168000  0.16932000  1.0
  C  C13  1  0.27771000  0.35848000  0.14504000  1.0
  C  C14  1  0.19894000  0.58742000  0.21888000  1.0
  C  C15  1  0.64368000  0.46477000  0.20752000  1.0
  C  C16  1  0.34239000  0.51851000  0.30047000  1.0
  C  C17  1  0.50458750  0.35487250  0.26450000  1.0
  C  C18  1  0.68117000  0.18815000  0.80878500  1.0
  C  C19  1  0.98875000  0.09121000  0.77614000  1.0
  C  C20  1  0.81515000  0.19662250  0.66463750  1.0
  C  C21  1  0.32733000  0.23127000  0.88306000  1.0
  C  C22  1  0.04949000  0.27398000  0.81231000  1.0
  C  C23  1  0.14844250  0.19305000  0.96128000  1.0
  C  C24  1  0.32732000  0.77214000  0.57396000  1.0
  C  C25  1  0.58778000  0.80590000  0.65800000  1.0
  C  C26  1  0.50778000  0.69731000  0.45575000  1.0
  C  C27  1  0.95523750  0.77874000  0.55746000  1.0
  C  C28  1  0.67116000  0.82479000  0.50526000  1.0
  C  C29  1  0.84317000  0.88879000  0.68644500  1.0
  C  C30  1  0.05851000  0.57563500  0.78638500  1.0
  C  C31  1  0.36556500  0.63834000  0.87190000  1.0
  C  C32  1  0.15361500  0.44157000  0.78648000  1.0
  C  C33  1  0.70795250  0.61821500  0.75266000  1.0
  C  C34  1  0.42954500  0.49992000  0.70086500  1.0
  C  C35  1  0.48942000  0.73991000  0.79698000  1.0
  C  C36  1  0.30216000  0.66059250  0.92601500  1.0
  C  C37  1  0.24233000  0.71467250  0.01133250  1.0
  C  C38  1  0.94237750  0.96639000  0.21390000  1.0
  C  C39  1  0.89661000  0.05517750  0.24855750  1.0
  C  C40  1  0.64808000  0.29521750  0.33700000  1.0
  C  C41  1  0.57002500  0.34105250  0.30203500  1.0
  C  C42  1  0.24701000  0.29798000  0.09999000  1.0
  C  C43  1  0.18674000  0.22661000  0.02264000  1.0
  C  C44  1  0.96991000  0.02822500  0.75779500  1.0
  C  C45  1  0.90421000  0.94349000  0.72184000  1.0
  C  C46  1  0.50209000  0.77662000  0.76906000  1.0
  C  C47  1  0.54742000  0.80516000  0.71044000  1.0
  C  C48  1  0.41959000  0.84709250  0.25438750  1.0
  C  C49  1  0.57272000  0.86537000  0.27801000  1.0
  C  C50  1  0.12880000  0.23514500  0.40985500  1.0
  C  C51  1  0.28284000  0.25114500  0.40463500  1.0
  C  C52  1  0.73874000  0.46487250  0.17811250  1.0
  C  C53  1  0.89397750  0.46802000  0.16202000  1.0
  C  C54  1  0.44021000  0.23303250  0.87886000  1.0
  C  C55  1  0.59145000  0.21495000  0.84770500  1.0
  C  C56  1  0.21758000  0.75818000  0.56956000  1.0
  C  C57  1  0.05893250  0.75911000  0.56060000  1.0
  C  C58  1  0.81981250  0.61061500  0.74912000  1.0
  C  C59  1  0.96959500  0.59232750  0.76329750  1.0
  C  C60  1  0.81438000  0.83346000  0.39565000  1.0
  C  C61  1  0.72111000  0.83982000  0.46392500  1.0
  C  C62  1  0.53774250  0.37561500  0.57669250  1.0
  C  C63  1  0.48950250  0.45603750  0.64921500  1.0
  C  C64  1  0.07528000  0.68415500  0.18139250  1.0
  C  C65  1  0.15709750  0.61936000  0.18984000  1.0
  C  C66  1  0.71610250  0.16885250  0.52771750  1.0
  C  C67  1  0.76255000  0.17551500  0.60755500  1.0
  C  C68  1  0.46698000  0.63598000  0.42384000  1.0
  C  C69  1  0.38796000  0.56169000  0.35827000  1.0
  C  C70  1  0.09445250  0.33009000  0.82128000  1.0
  C  C71  1  0.13837500  0.40192000  0.81107000  1.0
  N  N72  1  0.21912750  0.63187000  0.93059000  1.0
  N  N73  1  0.18121750  0.66615250  0.98485250  1.0
  N  N74  1  0.98398000  0.98485000  0.17827000  1.0
  N  N75  1  0.95475000  0.04097000  0.20009000  1.0
  N  N76  1  0.69180000  0.34961000  0.36114000  1.0
  N  N77  1  0.64244750  0.37867000  0.33880000  1.0
  N  N78  1  0.28965750  0.24838000  0.09526250  1.0
  N  N79  1  0.25141750  0.20303000  0.04608000  1.0
  N  N80  1  0.02101000  0.00014000  0.78189000  1.0
  N  N81  1  0.97959000  0.94651000  0.75904000  1.0
  N  N82  1  0.46809250  0.83310000  0.79271000  1.0
  N  N83  1  0.49584750  0.85101750  0.75494750  1.0
  N  N84  1  0.42260000  0.90365000  0.30000000  1.0
  N  N85  1  0.52060000  0.91527750  0.31528750  1.0
  N  N86  1  0.13330250  0.28600750  0.40771750  1.0
  N  N87  1  0.23200000  0.29634500  0.40451500  1.0
  N  N88  1  0.74700000  0.44493750  0.11928750  1.0
  N  N89  1  0.84635000  0.44712000  0.10902000  1.0
  N  N90  1  0.49768250  0.27959250  0.91814250  1.0
  N  N91  1  0.59375000  0.26813000  0.89836000  1.0
  N  N92  1  0.17965000  0.71618000  0.58055750  1.0
  N  N93  1  0.07854000  0.71692000  0.57508000  1.0
  N  N94  1  0.87644250  0.60650000  0.70361000  1.0
  N  N95  1  0.97186500  0.59487250  0.71264750  1.0
  N  N96  1  0.77890000  0.88998000  0.42528000  1.0
  N  N97  1  0.72007000  0.89418000  0.46910000  1.0
  N  N98  1  0.60684750  0.41696250  0.58225500  1.0
  N  N99  1  0.57646750  0.46813500  0.62870000  1.0
  N  N100  1  0.06474000  0.63312000  0.12900000  1.0
  N  N101  1  0.11654750  0.59188000  0.13444000  1.0
  N  N102  1  0.66113000  0.12770750  0.53321750  1.0
  N  N103  1  0.69107750  0.13185250  0.58420000  1.0
  N  N104  1  0.42677000  0.60769000  0.45102000  1.0
  N  N105  1  0.37682000  0.56035000  0.40930000  1.0
  N  N106  1  0.16598500  0.36075000  0.86346000  1.0
  N  N107  1  0.19370500  0.40636000  0.85707000  1.0
  O  O108  1  0.73803000  0.90861000  0.31352000  1.0
  O  O109  1  0.73145000  0.81378000  0.23500000  1.0
  O  O110  1  0.89839000  0.88468000  0.22868000  1.0
  O  O111  1  0.05755000  0.88467250  0.18814750  1.0
  O  O112  1  0.84473750  0.75072000  0.29833750  1.0
  O  O113  1  0.89636500  0.84231500  0.31780500  1.0
  O  O114  1  0.31747000  0.76083250  0.19086500  1.0
  O  O115  1  0.25293000  0.85338000  0.22080000  1.0
  O  O116  1  0.07815250  0.79062000  0.22817000  1.0
  O  O117  1  0.92877000  0.74544000  0.18842000  1.0
  O  O118  1  0.28848250  0.81100000  0.09368000  1.0
  O  O119  1  0.15276000  0.76243500  0.10603500  1.0
  O  O120  1  0.44888000  0.28852500  0.40199000  1.0
  O  O121  1  0.43910000  0.20634500  0.41213000  1.0
  O  O122  1  0.61678000  0.20874750  0.34741750  1.0
  O  O123  1  0.75778000  0.26382000  0.38914000  1.0
  O  O124  1  0.47432000  0.27562000  0.53411750  1.0
  O  O125  1  0.59830000  0.29285000  0.48250000  1.0
  O  O126  1  0.02845750  0.15381000  0.40365000  1.0
  O  O127  1  0.94870000  0.23730000  0.41503000  1.0
  O  O128  1  0.78146500  0.21463000  0.47489000  1.0
  O  O129  1  0.63134000  0.16218500  0.44121500  1.0
  O  O130  1  0.89347000  0.16008500  0.28144500  1.0
  O  O131  1  0.82100750  0.13077000  0.34228000  1.0
  O  O132  1  0.06380000  0.45532000  0.12226000  1.0
  O  O133  1  0.04765500  0.48676000  0.22122000  1.0
  O  O134  1  0.20874000  0.40138000  0.16426000  1.0
  O  O135  1  0.37349000  0.36654000  0.16382000  1.0
  O  O136  1  0.18356000  0.61049000  0.27639000  1.0
  O  O137  1  0.22113000  0.53028000  0.18652000  1.0
  O  O138  1  0.63952000  0.49237000  0.26601750  1.0
  O  O139  1  0.56556000  0.43237000  0.17575750  1.0
  O  O140  1  0.39606000  0.50193000  0.25213000  1.0
  O  O141  1  0.24226000  0.51092000  0.29476000  1.0
  O  O142  1  0.45525000  0.31171000  0.21924000  1.0
  O  O143  1  0.50679000  0.40901000  0.27169250  1.0
  O  O144  1  0.67187000  0.13630250  0.75977250  1.0
  O  O145  1  0.76833000  0.21811000  0.82004000  1.0
  O  O146  1  0.92213000  0.11859500  0.75956500  1.0
  O  O147  1  0.06672000  0.11788500  0.81271750  1.0
  O  O148  1  0.86619750  0.24712500  0.68830000  1.0
  O  O149  1  0.81206500  0.16532000  0.69184000  1.0
  O  O150  1  0.27942500  0.27945000  0.92319000  1.0
  O  O151  1  0.27265000  0.18377000  0.84668000  1.0
  O  O152  1  0.09892250  0.24791000  0.83698000  1.0
  O  O153  1  0.96501000  0.25184000  0.78068000  1.0
  O  O154  1  0.18122250  0.13823000  0.92666000  1.0
  O  O155  1  0.10887000  0.22239000  0.93680000  1.0
  O  O156  1  0.38824250  0.74554000  0.59397250  1.0
  O  O157  1  0.36788000  0.80740000  0.55606000  1.0
  O  O158  1  0.53876000  0.83725000  0.63896000  1.0
  O  O159  1  0.66728000  0.77305000  0.62836000  1.0
  O  O160  1  0.49312000  0.73105500  0.43182500  1.0
  O  O161  1  0.53301000  0.72282000  0.51269000  1.0
  O  O162  1  0.94197000  0.82208250  0.54566250  1.0
  O  O163  1  0.87686750  0.75940000  0.57531000  1.0
  O  O164  1  0.71412000  0.78383000  0.51371000  1.0
  O  O165  1  0.57929000  0.84550000  0.52741000  1.0
  O  O166  1  0.85488000  0.84488250  0.69757250  1.0
  O  O167  1  0.79007000  0.87883000  0.63888000  1.0
  O  O168  1  0.05222250  0.57614000  0.83723750  1.0
  O  O169  1  0.14264500  0.55647750  0.75392750  1.0
  O  O170  1  0.33989250  0.59168000  0.82170000  1.0
  O  O171  1  0.45097000  0.66469500  0.87066500  1.0
  O  O172  1  0.10769500  0.43006250  0.73663250  1.0
  O  O173  1  0.22035750  0.48577000  0.81172000  1.0
  O  O174  1  0.65856250  0.61414250  0.70648250  1.0
  O  O175  1  0.65553000  0.62635500  0.79973000  1.0
  O  O176  1  0.46972000  0.55316250  0.73732750  1.0
  O  O177  1  0.33799750  0.48391000  0.71088000  1.0
  O  O178  1  0.48376750  0.76514750  0.85526750  1.0
  O  O179  1  0.49501250  0.68162250  0.76379250  1.0
  O  O180  1  0.31692000  0.71157000  0.97547000  1.0
  O  O181  1  0.88914250  0.00955000  0.25761000  1.0
  O  O182  1  0.57289000  0.28943000  0.30045000  1.0
  O  O183  1  0.18427000  0.28508000  0.05535000  1.0
  O  O184  1  0.89747000  0.99371000  0.72066000  1.0
  O  O185  1  0.55122000  0.75916000  0.71862000  1.0
  O  O186  1  0.51141250  0.82315000  0.24037000  1.0
  O  O187  1  0.22032000  0.21320000  0.40789000  1.0
  O  O188  1  0.82856000  0.47889000  0.20466000  1.0
  O  O189  1  0.49725000  0.19309000  0.83520000  1.0
  O  O190  1  0.14391000  0.78502000  0.55731000  1.0
  O  O191  1  0.87635000  0.60183500  0.78605000  1.0
  O  O192  1  0.77869000  0.80240000  0.41905000  1.0
  O  O193  1  0.46552750  0.39935750  0.61752000  1.0
  O  O194  1  0.13116750  0.67595000  0.21897000  1.0
  O  O195  1  0.77806000  0.19827500  0.57314000  1.0
  O  O196  1  0.44257000  0.60808000  0.36696000  1.0
  O  O197  1  0.07715000  0.35496000  0.78851000  1.0
  Zn  Zn198  1  0.87128000  0.81989000  0.23937000  1.0
  Zn  Zn199  1  0.13160750  0.82226000  0.18494000  1.0
  Zn  Zn200  1  0.57772000  0.21489000  0.41923500  1.0
  Zn  Zn201  1  0.81946000  0.21021000  0.40497250  1.0
  Zn  Zn202  1  0.18816000  0.48198000  0.21822000  1.0
  Zn  Zn203  1  0.45532000  0.42801000  0.21641000  1.0
  Zn  Zn204  1  0.87445000  0.18903500  0.76490500  1.0
  Zn  Zn205  1  0.12959000  0.19149000  0.85631250  1.0
  Zn  Zn206  1  0.51030250  0.80523000  0.55902000  1.0
  Zn  Zn207  1  0.75427000  0.79861000  0.58827500  1.0
  Zn  Zn208  1  0.25622000  0.53014500  0.77645500  1.0
  Zn  Zn209  1  0.51437000  0.63147500  0.79450500  1.0
