# generated using pymatgen
data_Zn4H9C21N3O13
_symmetry_space_group_name_H-M   'P 1'
_cell_length_a   12.45673333
_cell_length_b   41.24760000
_cell_length_c   41.48976758
_cell_angle_alpha   60.57624191
_cell_angle_beta   88.41892283
_cell_angle_gamma   89.20800000
_symmetry_Int_Tables_number   1
_chemical_formula_structural   Zn4H9C21N3O13
_chemical_formula_sum   'Zn36 H81 C189 N27 O117'
_cell_volume   18561.01358109
_cell_formula_units_Z   9
loop_
 _symmetry_equiv_pos_site_id
 _symmetry_equiv_pos_as_xyz
  1  'x, y, z'
loop_
 _atom_site_type_symbol
 _atom_site_label
 _atom_site_symmetry_multiplicity
 _atom_site_fract_x
 _atom_site_fract_y
 _atom_site_fract_z
 _atom_site_occupancy
  C  C0  1  0.66208000  0.18383000  0.99413000  1.0
  C  C1  1  0.92735000  0.08846000  0.07141000  1.0
  C  C2  1  0.08899000  0.21925000  0.04375000  1.0
  C  C3  1  0.95140000  0.15293000  0.93662000  1.0
  C  C4  1  0.90000000  0.27340000  0.95258000  1.0
  C  C5  1  0.20669000  0.18617000  0.98308000  1.0
  C  C6  1  0.31804000  0.02129000  0.82488000  1.0
  C  C7  1  0.03287000  0.93683000  0.91181000  1.0
  C  C8  1  0.88684000  0.97891000  0.77688000  1.0
  C  C9  1  0.02871000  0.07450000  0.85606000  1.0
  C  C10  1  0.09014000  0.06271000  0.73312000  1.0
  C  C11  1  0.77484000  0.03339000  0.81922000  1.0
  C  C12  1  0.68999000  0.84546000  0.15705000  1.0
  C  C13  1  0.98276000  0.85868667  0.06636000  1.0
  C  C14  1  0.13346000  0.76013000  0.19976000  1.0
  C  C15  1  0.95036000  0.93137000  0.13692000  1.0
  C  C16  1  0.92745000  0.79357000  0.24898000  1.0
  C  C17  1  0.23372000  0.85552000  0.16157000  1.0
  C  C18  1  0.03063000  0.85792000  0.64878000  1.0
  C  C19  1  0.76910000  0.83280000  0.57856000  1.0
  C  C20  1  0.60218000  0.94070000  0.60268000  1.0
  C  C21  1  0.75598000  0.76980000  0.71957000  1.0
  C  C22  1  0.77851000  0.90761000  0.69317000  1.0
  C  C23  1  0.48527000  0.84862000  0.66053000  1.0
  C  C24  1  0.04037000  0.66239000  0.50048000  1.0
  C  C25  1  0.74589000  0.61203000  0.58912000  1.0
  C  C26  1  0.62792000  0.62232000  0.45908000  1.0
  C  C27  1  0.77905000  0.74856000  0.50427000  1.0
  C  C28  1  0.79363000  0.71639333  0.40134667  1.0
  C  C29  1  0.49509000  0.67692000  0.49571000  1.0
  C  C30  1  0.00612000  0.51749000  0.83098000  1.0
  C  C31  1  0.74730000  0.61330000  0.81218000  1.0
  C  C32  1  0.56912000  0.48764000  0.91365000  1.0
  C  C33  1  0.72387000  0.54406000  0.74667000  1.0
  C  C34  1  0.77436000  0.42688000  0.87984000  1.0
  C  C35  1  0.46368000  0.51542000  0.82312000  1.0
  C  C36  1  0.03923000  0.51926000  0.32662000  1.0
  C  C37  1  0.29941000  0.42428000  0.40620000  1.0
  C  C38  1  0.47120000  0.55148000  0.37979000  1.0
  C  C39  1  0.32799000  0.48255000  0.27497000  1.0
  C  C40  1  0.27338000  0.60827000  0.28168000  1.0
  C  C41  1  0.58350000  0.52149000  0.31585000  1.0
  C  C42  1  0.63957000  0.35487000  0.15092000  1.0
  C  C43  1  0.35630000  0.27279000  0.24348000  1.0
  C  C44  1  0.21779000  0.30136000  0.11507000  1.0
  C  C45  1  0.36133000  0.40482000  0.19182000  1.0
  C  C46  1  0.40702000  0.40445000  0.06301000  1.0
  C  C47  1  0.09494000  0.36782000  0.14532000  1.0
  C  C48  1  0.02844000  0.17687000  0.49284000  1.0
  C  C49  1  0.31483000  0.19730000  0.39973000  1.0
  C  C50  1  0.46002000  0.09277000  0.53074000  1.0
  C  C51  1  0.29845000  0.26683000  0.47126000  1.0
  C  C52  1  0.25732000  0.13323000  0.58430000  1.0
  C  C53  1  0.57274000  0.18594000  0.49826000  1.0
  C  C54  1  0.12025000  0.23929000  0.06343000  1.0
  C  C55  1  0.12997000  0.27826000  0.04399000  1.0
  C  C56  1  0.18877000  0.27894000  0.09778000  1.0
  C  C57  1  0.18085000  0.23998667  0.11828000  1.0
  C  C58  1  0.14584000  0.22025000  0.10105000  1.0
  C  C59  1  0.12473000  0.08304000  0.69387000  1.0
  C  C60  1  0.13621000  0.06376667  0.67397000  1.0
  C  C61  1  0.21641000  0.11647000  0.62269000  1.0
  C  C62  1  0.20521000  0.13705000  0.64132000  1.0
  C  C63  1  0.15876000  0.12023000  0.67696000  1.0
  C  C64  1  0.16884000  0.72091000  0.21982000  1.0
  C  C65  1  0.18299000  0.70317000  0.25819000  1.0
  C  C66  1  0.24333000  0.64770000  0.25910000  1.0
  C  C67  1  0.23163000  0.66445000  0.22067000  1.0
  C  C68  1  0.19358000  0.70105000  0.20112000  1.0
  C  C69  1  0.82076000  0.73661000  0.36152000  1.0
  C  C70  1  0.83789000  0.77522000  0.34259000  1.0
  C  C71  1  0.89620000  0.77341000  0.28837000  1.0
  C  C72  1  0.87888000  0.73490000  0.30624000  1.0
  C  C73  1  0.84161000  0.71661000  0.34277000  1.0
  C  C74  1  0.80384000  0.38712000  0.89764000  1.0
  C  C75  1  0.82049000  0.36708000  0.93586000  1.0
  C  C76  1  0.87248000  0.31315000  0.93232000  1.0
  C  C77  1  0.85779000  0.33217000  0.89396000  1.0
  C  C78  1  0.82259000  0.36915000  0.87672000  1.0
  C  C79  1  0.85896000  0.96097000  0.75497000  1.0
  C  C80  1  0.83422000  0.92288000  0.77227000  1.0
  C  C81  1  0.80088000  0.92692000  0.71414000  1.0
  C  C82  1  0.82467000  0.96508333  0.69580667  1.0
  C  C83  1  0.85295000  0.98204000  0.71631000  1.0
  C  C84  1  0.43975000  0.42799000  0.02371000  1.0
  C  C85  1  0.45924000  0.41140000  0.00160000  1.0
  C  C86  1  0.52505000  0.46837000  0.95174000  1.0
  C  C87  1  0.50464000  0.48649000  0.97239000  1.0
  C  C88  1  0.46175000  0.46614667  0.00849000  1.0
  C  C89  1  0.49421000  0.05339000  0.54830000  1.0
  C  C90  1  0.50942000  0.03312000  0.58662000  1.0
  C  C91  1  0.56857000  0.97997000  0.58272000  1.0
  C  C92  1  0.55508000  0.99917000  0.54430000  1.0
  C  C93  1  0.51723000  0.03586000  0.52719000  1.0
  C  C94  1  0.59462000  0.60314000  0.43873000  1.0
  C  C95  1  0.56818000  0.56511000  0.45684000  1.0
  C  C96  1  0.51182000  0.56957000  0.40023000  1.0
  C  C97  1  0.53913000  0.60742000  0.38114000  1.0
  C  C98  1  0.58002000  0.62403000  0.40039000  1.0
  C  C99  1  0.93866000  0.97070000  0.12707000  1.0
  C  C100  1  0.85065000  0.99078000  0.10622000  1.0
  C  C101  1  0.92580000  0.04784000  0.09609000  1.0
  C  C102  1  0.01178000  0.02852667  0.11908000  1.0
  C  C103  1  0.01760000  0.98968000  0.13480000  1.0
  C  C104  1  0.00546000  0.09715000  0.87409000  1.0
  C  C105  1  0.97389000  0.07877333  0.91156667  1.0
  C  C106  1  0.96989000  0.13562000  0.91321000  1.0
  C  C107  1  0.00022000  0.15550000  0.87553000  1.0
  C  C108  1  0.01708000  0.13607000  0.85586000  1.0
  C  C109  1  0.99524000  0.86913000  0.02718000  1.0
  C  C110  1  0.09770000  0.87753667  0.01020000  1.0
  C  C111  1  0.02119000  0.90755000  0.95059000  1.0
  C  C112  1  0.91816000  0.89603000  0.96655000  1.0
  C  C113  1  0.90529000  0.87748000  0.00497000  1.0
  C  C114  1  0.75869000  0.73091000  0.74970000  1.0
  C  C115  1  0.66678000  0.71269000  0.77095000  1.0
  C  C116  1  0.75625000  0.65401000  0.79627000  1.0
  C  C117  1  0.85228000  0.67193000  0.77817000  1.0
  C  C118  1  0.85269000  0.71019000  0.75458000  1.0
  C  C119  1  0.77711000  0.81952000  0.55126000  1.0
  C  C120  1  0.86905000  0.79997000  0.55034000  1.0
  C  C121  1  0.78135000  0.77828667  0.51422333  1.0
  C  C122  1  0.69115000  0.80027000  0.51133000  1.0
  C  C123  1  0.68919000  0.82086000  0.53007000  1.0
  C  C124  1  0.72945000  0.59238000  0.62965000  1.0
  C  C125  1  0.73568000  0.61327000  0.64788000  1.0
  C  C126  1  0.71705000  0.55906000  0.70661000  1.0
  C  C127  1  0.70514000  0.53694000  0.68978000  1.0
  C  C128  1  0.71130000  0.55386000  0.65095000  1.0
  C  C129  1  0.29500000  0.30646000  0.46088000  1.0
  C  C130  1  0.20705000  0.32803333  0.44137667  1.0
  C  C131  1  0.29399000  0.38366000  0.43041000  1.0
  C  C132  1  0.38087000  0.36289000  0.45188000  1.0
  C  C133  1  0.38072000  0.32406000  0.46737000  1.0
  C  C134  1  0.35231000  0.42590000  0.21219000  1.0
  C  C135  1  0.34775000  0.46504000  0.19450000  1.0
  C  C136  1  0.34142000  0.46360000  0.25276000  1.0
  C  C137  1  0.34633000  0.42465000  0.27117000  1.0
  C  C138  1  0.35191000  0.40607000  0.25099000  1.0
  C  C139  1  0.32447000  0.20897000  0.36005000  1.0
  C  C140  1  0.23472000  0.22201000  0.33746000  1.0
  C  C141  1  0.34656000  0.24595000  0.28318000  1.0
  C  C142  1  0.43771000  0.23118000  0.30476000  1.0
  C  C143  1  0.42621000  0.21233000  0.34327000  1.0
  C  C144  1  0.32419000  0.18932000  0.97870000  1.0
  C  C145  1  0.38544000  0.15840000  0.98402000  1.0
  C  C146  1  0.54622000  0.18742000  0.98677000  1.0
  C  C147  1  0.48826000  0.21938000  0.98043000  1.0
  C  C148  1  0.37702000  0.22035000  0.97606000  1.0
  C  C149  1  0.43439000  0.03007000  0.82177000  1.0
  C  C150  1  0.49434000  0.03967000  0.78904000  1.0
  C  C151  1  0.65767000  0.03880000  0.81808000  1.0
  C  C152  1  0.60041000  0.03079000  0.85072000  1.0
  C  C153  1  0.48890000  0.02691000  0.85234000  1.0
  C  C154  1  0.35087000  0.85777000  0.16361000  1.0
  C  C155  1  0.41142000  0.87994000  0.13122000  1.0
  C  C156  1  0.57345000  0.85013000  0.16065000  1.0
  C  C157  1  0.51631000  0.82824000  0.19402000  1.0
  C  C158  1  0.40482000  0.83237000  0.19547000  1.0
  C  C159  1  0.36787000  0.84819000  0.66306000  1.0
  C  C160  1  0.31019000  0.82441000  0.65482000  1.0
  C  C161  1  0.14672000  0.85498000  0.65446000  1.0
  C  C162  1  0.20122000  0.87901000  0.66330000  1.0
  C  C163  1  0.31218000  0.87524000  0.66801000  1.0
  C  C164  1  0.37768000  0.67661000  0.49664000  1.0
  C  C165  1  0.32021000  0.68701000  0.46444000  1.0
  C  C166  1  0.15722000  0.66594000  0.49972000  1.0
  C  C167  1  0.21166000  0.65602000  0.53239000  1.0
  C  C168  1  0.32218000  0.66096000  0.53078000  1.0
  C  C169  1  0.34673000  0.51256000  0.82180000  1.0
  C  C170  1  0.28912000  0.48509000  0.85237000  1.0
  C  C171  1  0.12328000  0.51482000  0.82662000  1.0
  C  C172  1  0.17801000  0.54180000  0.79482000  1.0
  C  C173  1  0.28989000  0.54093000  0.79284000  1.0
  C  C174  1  0.70083000  0.52509000  0.31083000  1.0
  C  C175  1  0.75510000  0.55230000  0.31508000  1.0
  C  C176  1  0.92323000  0.52241000  0.31882000  1.0
  C  C177  1  0.87209000  0.49575000  0.31280000  1.0
  C  C178  1  0.76078000  0.49687000  0.30942000  1.0
  C  C179  1  0.97835000  0.37378000  0.14123000  1.0
  C  C180  1  0.92414000  0.36581333  0.11673667  1.0
  C  C181  1  0.75569000  0.36378000  0.14645000  1.0
  C  C182  1  0.80667000  0.37342667  0.17037333  1.0
  C  C183  1  0.91808000  0.37805000  0.16788000  1.0
  C  C184  1  0.68969000  0.18705000  0.50055000  1.0
  C  C185  1  0.74998000  0.21151000  0.46903000  1.0
  C  C186  1  0.91175000  0.18011000  0.49676000  1.0
  C  C187  1  0.85471000  0.15563000  0.52926000  1.0
  C  C188  1  0.74329000  0.15939000  0.53116000  1.0
  H  H189  1  0.14019000  0.19021000  0.11698000  1.0
  H  H190  1  0.11101000  0.29410000  0.01495000  1.0
  H  H191  1  0.19993000  0.22499000  0.14736000  1.0
  H  H192  1  0.15249000  0.13587000  0.69161000  1.0
  H  H193  1  0.11090000  0.03505000  0.68595000  1.0
  H  H194  1  0.23138000  0.16574000  0.62850000  1.0
  H  H195  1  0.18461000  0.71385000  0.17146000  1.0
  H  H196  1  0.16495000  0.71743000  0.27372000  1.0
  H  H197  1  0.24955000  0.64929000  0.20601000  1.0
  H  H198  1  0.82983000  0.68675000  0.35641000  1.0
  H  H199  1  0.82440000  0.79147000  0.35636000  1.0
  H  H200  1  0.89413000  0.71898000  0.29218000  1.0
  H  H201  1  0.81176000  0.38378000  0.84707000  1.0
  H  H202  1  0.80715000  0.37984000  0.95304000  1.0
  H  H203  1  0.87139000  0.31849000  0.87763000  1.0
  H  H204  1  0.87122000  0.01153000  0.70186000  1.0
  H  H205  1  0.83657000  0.90576000  0.80207000  1.0
  H  H206  1  0.82187000  0.98165000  0.66594000  1.0
  H  H207  1  0.44857000  0.47997000  0.02470000  1.0
  H  H208  1  0.44319000  0.38215000  0.01200000  1.0
  H  H209  1  0.52231000  0.51579000  0.96097000  1.0
  H  H210  1  0.50737000  0.05059000  0.49749000  1.0
  H  H211  1  0.49278000  0.04550000  0.60398000  1.0
  H  H212  1  0.57231000  0.98591000  0.52776000  1.0
  H  H213  1  0.59940000  0.65342000  0.38519000  1.0
  H  H214  1  0.57732000  0.54810000  0.48643000  1.0
  H  H215  1  0.52857000  0.62419000  0.35158000  1.0
  H  H216  1  0.08659000  0.97494000  0.15091000  1.0
  H  H217  1  0.78695000  0.97694000  0.10038000  1.0
  H  H218  1  0.07651000  0.04332000  0.12313000  1.0
  H  H219  1  0.04150000  0.15120000  0.82691000  1.0
  H  H220  1  0.96248000  0.04890000  0.92667000  1.0
  H  H221  1  0.01081000  0.18540000  0.86159000  1.0
  H  H222  1  0.82505000  0.87147000  0.01723000  1.0
  H  H223  1  0.16893000  0.87154000  0.02658000  1.0
  H  H224  1  0.84743000  0.90426000  0.94969000  1.0
  H  H225  1  0.92558000  0.72340000  0.73899000  1.0
  H  H226  1  0.59299000  0.72798000  0.76803000  1.0
  H  H227  1  0.92482000  0.65631000  0.78020000  1.0
  H  H228  1  0.61654000  0.83560000  0.53006000  1.0
  H  H229  1  0.93954000  0.79876333  0.56559667  1.0
  H  H230  1  0.62033000  0.79937000  0.49722000  1.0
  H  H231  1  0.70531000  0.53689000  0.63779000  1.0
  H  H232  1  0.74684000  0.64316000  0.63273000  1.0
  H  H233  1  0.69467000  0.50710000  0.70629000  1.0
  H  H234  1  0.44983000  0.30817000  0.48245000  1.0
  H  H235  1  0.13828000  0.31534000  0.43655000  1.0
  H  H236  1  0.45025000  0.37654000  0.45503000  1.0
  H  H237  1  0.35518000  0.37593000  0.26605000  1.0
  H  H238  1  0.34897000  0.48138000  0.16460000  1.0
  H  H239  1  0.34562000  0.40844000  0.30112000  1.0
  H  H240  1  0.49761000  0.20277000  0.35977000  1.0
  H  H241  1  0.15483000  0.21951000  0.34942000  1.0
  H  H242  1  0.51725000  0.23568000  0.29208000  1.0
  H  H243  1  0.33170000  0.24437000  0.97277000  1.0
  H  H244  1  0.34694000  0.13385000  0.98653000  1.0
  H  H245  1  0.52807000  0.24298000  0.97957000  1.0
  H  H246  1  0.44623000  0.01957000  0.87813000  1.0
  H  H247  1  0.45524000  0.04295000  0.76463000  1.0
  H  H248  1  0.64217000  0.02600000  0.87525000  1.0
  H  H249  1  0.36028000  0.81419000  0.22069000  1.0
  H  H250  1  0.37216000  0.89955000  0.10602000  1.0
  H  H251  1  0.55695000  0.80773000  0.21844000  1.0
  H  H252  1  0.35498000  0.89451000  0.67368000  1.0
  H  H253  1  0.35113000  0.80341000  0.65058000  1.0
  H  H254  1  0.15876000  0.90048000  0.66635000  1.0
  H  H255  1  0.36452000  0.65223000  0.55623000  1.0
  H  H256  1  0.36123000  0.69840000  0.43774000  1.0
  H  H257  1  0.16953000  0.64405000  0.55894000  1.0
  H  H258  1  0.33219000  0.56295000  0.76919000  1.0
  H  H259  1  0.33101000  0.46326000  0.87558000  1.0
  H  H260  1  0.13526000  0.56431000  0.77248000  1.0
  H  H261  1  0.72107000  0.47495000  0.30704000  1.0
  H  H262  1  0.71067000  0.57397000  0.31718000  1.0
  H  H263  1  0.91681000  0.47322000  0.31243000  1.0
  H  H264  1  0.95772000  0.38309000  0.18793000  1.0
  H  H265  1  0.96868000  0.36137333  0.09644667  1.0
  H  H266  1  0.76171000  0.37589667  0.19178333  1.0
  H  H267  1  0.69861000  0.13952000  0.55559000  1.0
  H  H268  1  0.71073000  0.23292000  0.44479000  1.0
  H  H269  1  0.89546000  0.13361000  0.55267000  1.0
  N  N270  1  0.16262000  0.29680000  0.06145000  1.0
  N  N271  1  0.18066000  0.08076000  0.63939000  1.0
  N  N272  1  0.21833000  0.66746000  0.27660000  1.0
  N  N273  1  0.87506000  0.79250000  0.30687000  1.0
  N  N274  1  0.85287000  0.33107000  0.95201000  1.0
  N  N275  1  0.80599000  0.90702000  0.75170000  1.0
  N  N276  1  0.50083000  0.43166000  0.96684000  1.0
  N  N277  1  0.54495000  0.99742000  0.60262000  1.0
  N  N278  1  0.52759000  0.54947000  0.43741000  1.0
  N  N279  1  0.84718000  0.02826667  0.09114333  1.0
  N  N280  1  0.95706000  0.09814000  0.92971000  1.0
  N  N281  1  0.10788000  0.89751000  0.97273000  1.0
  N  N282  1  0.66690000  0.67490000  0.79276000  1.0
  N  N283  1  0.86786000  0.77956000  0.53286000  1.0
  N  N284  1  0.73046000  0.59631000  0.68514000  1.0
  N  N285  1  0.20928000  0.36551000  0.42654000  1.0
  N  N286  1  0.34262000  0.48280000  0.21500000  1.0
  N  N287  1  0.24792000  0.24022000  0.30004000  1.0
  N  N288  1  0.49350000  0.15826000  0.98773000  1.0
  N  N289  1  0.60321000  0.04334000  0.78813000  1.0
  N  N290  1  0.51970000  0.87572000  0.13057000  1.0
  N  N291  1  0.20221000  0.82814000  0.65106000  1.0
  N  N292  1  0.21244000  0.68121000  0.46676000  1.0
  N  N293  1  0.18011000  0.48721000  0.85432000  1.0
  N  N294  1  0.86351000  0.55004000  0.31946000  1.0
  N  N295  1  0.81567000  0.36079333  0.12006000  1.0
  N  N296  1  0.85815000  0.20761000  0.46799000  1.0
  O  O297  1  0.71762000  0.15932000  0.98923000  1.0
  O  O298  1  0.85231000  0.10244000  0.04662000  1.0
  O  O299  1  0.01097000  0.10840000  0.06976000  1.0
  O  O300  1  0.70698000  0.20340000  0.00732000  1.0
  O  O301  1  0.93628000  0.17973667  0.00225000  1.0
  O  O302  1  0.05959000  0.18401333  0.06175667  1.0
  O  O303  1  0.91025000  0.13150000  0.96977000  1.0
  O  O304  1  0.97843000  0.18766000  0.92568000  1.0
  O  O305  1  0.88109000  0.25559000  0.98851000  1.0
  O  O306  1  0.93610000  0.25596000  0.93495000  1.0
  O  O307  1  0.16797000  0.15866000  0.01405000  1.0
  O  O308  1  0.14369000  0.21226000  0.95891000  1.0
  O  O309  1  0.09590000  0.23641000  0.00752000  1.0
  O  O310  1  0.25889000  0.02161000  0.85143000  1.0
  O  O311  1  0.10886000  0.96174000  0.90314000  1.0
  O  O312  1  0.95649000  0.94144000  0.88877000  1.0
  O  O313  1  0.27620000  0.01152000  0.80219000  1.0
  O  O314  1  0.04399000  0.01238000  0.82525000  1.0
  O  O315  1  0.91747000  0.95891000  0.81133000  1.0
  O  O316  1  0.05840000  0.03985000  0.87741000  1.0
  O  O317  1  0.01516000  0.08789000  0.82028000  1.0
  O  O318  1  0.10588000  0.02654000  0.75095000  1.0
  O  O319  1  0.05442000  0.08061000  0.75040000  1.0
  O  O320  1  0.81000000  0.00068000  0.84392000  1.0
  O  O321  1  0.84076000  0.05864000  0.79435000  1.0
  O  O322  1  0.87662000  0.01506000  0.76240000  1.0
  O  O323  1  0.74409000  0.87245000  0.12974000  1.0
  O  O324  1  0.91044000  0.87633000  0.07563000  1.0
  O  O325  1  0.05401000  0.83658000  0.08980000  1.0
  O  O326  1  0.73763000  0.81441000  0.18032000  1.0
  O  O327  1  0.96556000  0.84120000  0.15590000  1.0
  O  O328  1  0.09922000  0.77520000  0.16566000  1.0
  O  O329  1  0.92232000  0.92210000  0.11223000  1.0
  O  O330  1  0.98327000  0.90642000  0.16986000  1.0
  O  O331  1  0.91179000  0.77718000  0.22921000  1.0
  O  O332  1  0.96091000  0.82833000  0.23363000  1.0
  O  O333  1  0.19885000  0.84916000  0.13572000  1.0
  O  O334  1  0.16812000  0.85463000  0.18751000  1.0
  O  O335  1  0.14138000  0.78081000  0.21551000  1.0
  O  O336  1  0.97915000  0.82819000  0.65415000  1.0
  O  O337  1  0.83153000  0.81710000  0.60728000  1.0
  O  O338  1  0.69483000  0.85687000  0.57595000  1.0
  O  O339  1  0.98117000  0.88982000  0.63785000  1.0
  O  O340  1  0.75649000  0.85903000  0.64604000  1.0
  O  O341  1  0.63670000  0.92314000  0.58510000  1.0
  O  O342  1  0.80353000  0.77744000  0.68803000  1.0
  O  O343  1  0.71026000  0.79590000  0.72464000  1.0
  O  O344  1  0.80637000  0.92372000  0.65789000  1.0
  O  O345  1  0.73860000  0.87367000  0.71058000  1.0
  O  O346  1  0.52972000  0.85092000  0.63046000  1.0
  O  O347  1  0.54235000  0.85131000  0.68535000  1.0
  O  O348  1  0.59184000  0.92238000  0.63882000  1.0
  O  O349  1  0.98484000  0.66311000  0.52733000  1.0
  O  O350  1  0.79299000  0.64456000  0.57434000  1.0
  O  O351  1  0.70955000  0.59898000  0.56826000  1.0
  O  O352  1  0.99320000  0.66137000  0.47317000  1.0
  O  O353  1  0.76651000  0.66979000  0.49521000  1.0
  O  O354  1  0.66198000  0.60419000  0.49333000  1.0
  O  O355  1  0.84283000  0.72026000  0.52258000  1.0
  O  O356  1  0.70908000  0.74830000  0.48125000  1.0
  O  O357  1  0.82570000  0.68169000  0.42021000  1.0
  O  O358  1  0.74602000  0.73353000  0.41761000  1.0
  O  O359  1  0.54309000  0.64729000  0.52127000  1.0
  O  O360  1  0.54893000  0.70421000  0.46820000  1.0
  O  O361  1  0.61531000  0.65845000  0.44342000  1.0
  O  O362  1  0.94913000  0.53733000  0.80154000  1.0
  O  O363  1  0.82441000  0.59629000  0.80418000  1.0
  O  O364  1  0.65689000  0.59600000  0.82805000  1.0
  O  O365  1  0.96087000  0.50175000  0.86423000  1.0
  O  O366  1  0.73103000  0.52060000  0.83717000  1.0
  O  O367  1  0.59256000  0.52333000  0.89625000  1.0
  O  O368  1  0.75826000  0.56688000  0.75756000  1.0
  O  O369  1  0.70063000  0.50921000  0.77064000  1.0
  O  O370  1  0.79496000  0.44539000  0.89728000  1.0
  O  O371  1  0.73388000  0.44346000  0.84646000  1.0
  O  O372  1  0.50098000  0.54448000  0.82419000  1.0
  O  O373  1  0.52704000  0.48788000  0.82714000  1.0
  O  O374  1  0.57961000  0.46886000  0.89587000  1.0
  O  O375  1  0.09760000  0.49570000  0.32110000  1.0
  O  O376  1  0.22007000  0.44003000  0.38352000  1.0
  O  O377  1  0.38913000  0.44248000  0.40218000  1.0
  O  O378  1  0.08180000  0.53844000  0.34069000  1.0
  O  O379  1  0.31369000  0.51520000  0.33618000  1.0
  O  O380  1  0.44024000  0.51646000  0.39714000  1.0
  O  O381  1  0.29032000  0.46265667  0.30889000  1.0
  O  O382  1  0.35181000  0.51801000  0.26150000  1.0
  O  O383  1  0.25509000  0.59242000  0.31761000  1.0
  O  O384  1  0.31010000  0.58904000  0.26597000  1.0
  O  O385  1  0.54641000  0.49411000  0.34724000  1.0
  O  O386  1  0.51905000  0.54666000  0.29137000  1.0
  O  O387  1  0.47331000  0.56973000  0.34348000  1.0
  O  O388  1  0.58390000  0.35572000  0.17778000  1.0
  O  O389  1  0.44294000  0.29350000  0.23078000  1.0
  O  O390  1  0.27083000  0.28041000  0.22320000  1.0
  O  O391  1  0.59394000  0.34504000  0.12882000  1.0
  O  O392  1  0.36415000  0.34701000  0.15507000  1.0
  O  O393  1  0.25237000  0.28560000  0.14916000  1.0
  O  O394  1  0.39385000  0.37016000  0.21037000  1.0
  O  O395  1  0.33731000  0.41995000  0.15654000  1.0
  O  O396  1  0.41832000  0.36821000  0.07764000  1.0
  O  O397  1  0.37658000  0.41949000  0.08349000  1.0
  O  O398  1  0.12653000  0.33402000  0.16852000  1.0
  O  O399  1  0.16397000  0.39469000  0.12528000  1.0
  O  O400  1  0.19979000  0.33736000  0.09731000  1.0
  O  O401  1  0.08100000  0.20591000  0.46754000  1.0
  O  O402  1  0.24118000  0.21302000  0.41080000  1.0
  O  O403  1  0.38828000  0.17536000  0.42216000  1.0
  O  O404  1  0.07774000  0.14541000  0.51411000  1.0
  O  O405  1  0.30335000  0.17597000  0.49103000  1.0
  O  O406  1  0.43001000  0.11054000  0.49609000  1.0
  O  O407  1  0.25564000  0.25716000  0.44867000  1.0
  O  O408  1  0.34072000  0.24213000  0.50260000  1.0
  O  O409  1  0.24525000  0.11435000  0.56676000  1.0
  O  O410  1  0.29563000  0.16739000  0.56724000  1.0
  O  O411  1  0.53608000  0.18268000  0.47073000  1.0
  O  O412  1  0.50819000  0.18421000  0.52475000  1.0
  O  O413  1  0.46645000  0.11100000  0.54909000  1.0
  Zn  Zn414  1  0.03876000  0.15806000  0.03614000  1.0
  Zn  Zn415  1  0.99493000  0.20828000  0.95675000  1.0
  Zn  Zn416  1  0.85097000  0.20620000  0.01583000  1.0
  Zn  Zn417  1  0.85642000  0.14495000  0.00223000  1.0
  Zn  Zn418  1  0.93668000  0.97946000  0.84173000  1.0
  Zn  Zn419  1  0.99172000  0.05865000  0.79794000  1.0
  Zn  Zn420  1  0.13472000  0.99991000  0.79960000  1.0
  Zn  Zn421  1  0.11618000  0.00860000  0.86280000  1.0
  Zn  Zn422  1  0.07427000  0.82603000  0.13742000  1.0
  Zn  Zn423  1  0.01745000  0.85689000  0.18593000  1.0
  Zn  Zn424  1  0.88055000  0.80189000  0.18057000  1.0
  Zn  Zn425  1  0.88925000  0.87615000  0.11964000  1.0
  Zn  Zn426  1  0.65942000  0.87188000  0.61038000  1.0
  Zn  Zn427  1  0.69020000  0.84568000  0.69001000  1.0
  Zn  Zn428  1  0.83640000  0.89992000  0.63132000  1.0
  Zn  Zn429  1  0.83807000  0.82225000  0.64844000  1.0
  Zn  Zn430  1  0.67676000  0.63067000  0.51897000  1.0
  Zn  Zn431  1  0.69565000  0.71250000  0.46638000  1.0
  Zn  Zn432  1  0.84945000  0.65509000  0.46931000  1.0
  Zn  Zn433  1  0.84356000  0.67399000  0.52803000  1.0
  Zn  Zn434  1  0.62551000  0.54589000  0.84589000  1.0
  Zn  Zn435  1  0.67629000  0.49093000  0.82120000  1.0
  Zn  Zn436  1  0.81483000  0.49560000  0.87625000  1.0
  Zn  Zn437  1  0.81292000  0.55371667  0.80193000  1.0
  Zn  Zn438  1  0.41702000  0.49248000  0.36983000  1.0
  Zn  Zn439  1  0.37032000  0.54161000  0.29005000  1.0
  Zn  Zn440  1  0.22694000  0.54304000  0.34776000  1.0
  Zn  Zn441  1  0.23286000  0.48015000  0.33759000  1.0
  Zn  Zn442  1  0.25847000  0.31299000  0.17352000  1.0
  Zn  Zn443  1  0.31339000  0.39395000  0.13073000  1.0
  Zn  Zn444  1  0.44881000  0.33699000  0.12583000  1.0
  Zn  Zn445  1  0.44414000  0.34129000  0.19185000  1.0
  Zn  Zn446  1  0.40922000  0.16171000  0.47064000  1.0
  Zn  Zn447  1  0.35985000  0.19156000  0.52058000  1.0
  Zn  Zn448  1  0.22289000  0.13535000  0.51730000  1.0
  Zn  Zn449  1  0.22417000  0.21115000  0.45581000  1.0
