# generated using pymatgen
data_NdH15(C5O3)2
_symmetry_space_group_name_H-M   'P 1'
_cell_length_a   34.10540000
_cell_length_b   36.77910000
_cell_length_c   42.60740000
_cell_angle_alpha   90.15500000
_cell_angle_beta   90.26300000
_cell_angle_gamma   92.85500000
_symmetry_Int_Tables_number   1
_chemical_formula_structural   NdH15(C5O3)2
_chemical_formula_sum   'Nd16 H240 C160 O96'
_cell_volume   53378.14063596
_cell_formula_units_Z   16
loop_
 _symmetry_equiv_pos_site_id
 _symmetry_equiv_pos_as_xyz
  1  'x, y, z'
loop_
 _atom_site_type_symbol
 _atom_site_label
 _atom_site_symmetry_multiplicity
 _atom_site_fract_x
 _atom_site_fract_y
 _atom_site_fract_z
 _atom_site_occupancy
  Nd  Nd0  1  0.69604000  0.94027000  0.14098000  1.0
  Nd  Nd1  1  0.65069000  0.02063000  0.15613000  1.0
  Nd  Nd2  1  0.43877000  0.63496000  0.64894000  1.0
  Nd  Nd3  1  0.52174000  0.68257000  0.63232000  1.0
  Nd  Nd4  1  0.79754000  0.52846000  0.14198000  1.0
  Nd  Nd5  1  0.84488000  0.45579000  0.15941000  1.0
  Nd  Nd6  1  0.04062000  0.84261000  0.65648000  1.0
  Nd  Nd7  1  0.94701000  0.80851000  0.66546000  1.0
  Nd  Nd8  1  0.34650000  0.05106000  0.88646000  1.0
  Nd  Nd9  1  0.37889000  0.96688000  0.87457000  1.0
  Nd  Nd10  1  0.44870000  0.37289000  0.36890000  1.0
  Nd  Nd11  1  0.45404000  0.30985000  0.32343000  1.0
  Nd  Nd12  1  0.15956000  0.43422000  0.89243000  1.0
  Nd  Nd13  1  0.11890000  0.51607000  0.88183000  1.0
  Nd  Nd14  1  0.03119000  0.10253000  0.38320000  1.0
  Nd  Nd15  1  0.03049000  0.15860000  0.31941000  1.0
  H  H16  1  0.60421000  0.93206000  0.19101000  1.0
  H  H17  1  0.73333000  0.03313000  0.10210000  1.0
  H  H18  1  0.52385000  0.60369000  0.69423000  1.0
  H  H19  1  0.42856000  0.69963000  0.57923000  1.0
  H  H20  1  0.88384000  0.53941000  0.20530000  1.0
  H  H21  1  0.77879000  0.44096000  0.08945000  1.0
  H  H22  1  0.97496000  0.89110000  0.71845000  1.0
  H  H23  1  0.00980000  0.74994000  0.61596000  1.0
  H  H24  1  0.30958000  0.97473000  0.94500000  1.0
  H  H25  1  0.42895000  0.03590000  0.82423000  1.0
  H  H26  1  0.40623000  0.38109000  0.27510000  1.0
  H  H27  1  0.47969000  0.28521000  0.41040000  1.0
  H  H28  1  0.19849000  0.51344000  0.94588000  1.0
  H  H29  1  0.06771000  0.44275000  0.83693000  1.0
  H  H30  1  0.07274000  0.06372000  0.30737000  1.0
  H  H31  1  0.99809000  0.20262000  0.39109000  1.0
  H  H32  1  0.46704000  0.06512000  0.94639000  1.0
  H  H33  1  0.63170000  0.98466000  0.04354000  1.0
  H  H34  1  0.56885000  0.01074000  0.06839000  1.0
  H  H35  1  0.57970000  0.01357000  0.01239000  1.0
  H  H36  1  0.50750000  0.01930000  0.03163000  1.0
  H  H37  1  0.52506000  0.04153000  0.98033000  1.0
  H  H38  1  0.45025000  0.02378000  0.98839000  1.0
  H  H39  1  0.49072000  0.03051000  0.92424000  1.0
  H  H40  1  0.60984000  0.94010000  0.05050000  1.0
  H  H41  1  0.54782000  0.96476000  0.06631000  1.0
  H  H42  1  0.56720000  0.96584000  0.00714000  1.0
  H  H43  1  0.49864000  0.97312000  0.01786000  1.0
  H  H44  1  0.52875000  0.99651000  0.96437000  1.0
  H  H45  1  0.45890000  0.98390000  0.96522000  1.0
  H  H46  1  0.53025000  0.55424000  0.58636000  1.0
  H  H47  1  0.48631000  0.47457000  0.42152000  1.0
  H  H48  1  0.46212000  0.44127000  0.47323000  1.0
  H  H49  1  0.50562000  0.49444000  0.47682000  1.0
  H  H50  1  0.46078000  0.48338000  0.52595000  1.0
  H  H51  1  0.51969000  0.52132000  0.53190000  1.0
  H  H52  1  0.46468000  0.53380000  0.57264000  1.0
  H  H53  1  0.53333000  0.58803000  0.55613000  1.0
  H  H54  1  0.43691000  0.48825000  0.41721000  1.0
  H  H55  1  0.41901000  0.46752000  0.46906000  1.0
  H  H56  1  0.46919000  0.52438000  0.46319000  1.0
  H  H57  1  0.43283000  0.52034000  0.51150000  1.0
  H  H58  1  0.50079000  0.55783000  0.50932000  1.0
  H  H59  1  0.45594000  0.57409000  0.55004000  1.0
  H  H60  1  0.93788000  0.52016000  0.09471000  1.0
  H  H61  1  0.04527000  0.41864000  0.96170000  1.0
  H  H62  1  0.99551000  0.46116000  0.95120000  1.0
  H  H63  1  0.00762000  0.44232000  0.01059000  1.0
  H  H64  1  0.94323000  0.46080000  0.00018000  1.0
  H  H65  1  0.97331000  0.47491000  0.05712000  1.0
  H  H66  1  0.90433000  0.46715000  0.05673000  1.0
  H  H67  1  0.90801000  0.54915000  0.07171000  1.0
  H  H68  1  0.07519000  0.45104000  0.98309000  1.0
  H  H69  1  0.02734000  0.50041000  0.96048000  1.0
  H  H70  1  0.02801000  0.48798000  0.01523000  1.0
  H  H71  1  0.95929000  0.50716000  0.99164000  1.0
  H  H72  1  0.97391000  0.52159000  0.04491000  1.0
  H  H73  1  0.89735000  0.50556000  0.03169000  1.0
  H  H74  1  0.02041000  0.06361000  0.48787000  1.0
  H  H75  1  0.92776000  0.89976000  0.58356000  1.0
  H  H76  1  0.97378000  0.89172000  0.54232000  1.0
  H  H77  1  0.95126000  0.95888000  0.54959000  1.0
  H  H78  1  0.97453000  0.94600000  0.49834000  1.0
  H  H79  1  0.98386000  0.01369000  0.51828000  1.0
  H  H80  1  0.98359000  0.00580000  0.46216000  1.0
  H  H81  1  0.06484000  0.04294000  0.47576000  1.0
  H  H82  1  0.96061000  0.93046000  0.60486000  1.0
  H  H83  1  0.01576000  0.90626000  0.56568000  1.0
  H  H84  1  0.99958000  0.96877000  0.56536000  1.0
  H  H85  1  0.02435000  0.94103000  0.51146000  1.0
  H  H86  1  0.03505000  0.00493000  0.52189000  1.0
  H  H87  1  0.03125000  0.98649000  0.46208000  1.0
  H  H88  1  0.71670000  0.82846000  0.09735000  1.0
  H  H89  1  0.74252000  0.63093000  0.09600000  1.0
  H  H90  1  0.79051000  0.66848000  0.12968000  1.0
  H  H91  1  0.73427000  0.69641000  0.10144000  1.0
  H  H92  1  0.77984000  0.73863000  0.13315000  1.0
  H  H93  1  0.72448000  0.76185000  0.10182000  1.0
  H  H94  1  0.76473000  0.80816000  0.13547000  1.0
  H  H95  1  0.67652000  0.81747000  0.12365000  1.0
  H  H96  1  0.71148000  0.62300000  0.12897000  1.0
  H  H97  1  0.75914000  0.66024000  0.16337000  1.0
  H  H98  1  0.70397000  0.68906000  0.13551000  1.0
  H  H99  1  0.74783000  0.73204000  0.16667000  1.0
  H  H100  1  0.69175000  0.75468000  0.13444000  1.0
  H  H101  1  0.72766000  0.80230000  0.16558000  1.0
  H  H102  1  0.62075000  0.76834000  0.59905000  1.0
  H  H103  1  0.83487000  0.82659000  0.60312000  1.0
  H  H104  1  0.80457000  0.79639000  0.65130000  1.0
  H  H105  1  0.76305000  0.80508000  0.60365000  1.0
  H  H106  1  0.73205000  0.77300000  0.65055000  1.0
  H  H107  1  0.69203000  0.78570000  0.60297000  1.0
  H  H108  1  0.65799000  0.75133000  0.64725000  1.0
  H  H109  1  0.63403000  0.72782000  0.57972000  1.0
  H  H110  1  0.84820000  0.78239000  0.58930000  1.0
  H  H111  1  0.81775000  0.75256000  0.63661000  1.0
  H  H112  1  0.77659000  0.76169000  0.58845000  1.0
  H  H113  1  0.74458000  0.72981000  0.63396000  1.0
  H  H114  1  0.70487000  0.74311000  0.58580000  1.0
  H  H115  1  0.67021000  0.70888000  0.62898000  1.0
  H  H116  1  0.20040000  0.32767000  0.94035000  1.0
  H  H117  1  0.30980000  0.15866000  0.93511000  1.0
  H  H118  1  0.25542000  0.16462000  0.89471000  1.0
  H  H119  1  0.27375000  0.21452000  0.93278000  1.0
  H  H120  1  0.22181000  0.22797000  0.89170000  1.0
  H  H121  1  0.23713000  0.27118000  0.93488000  1.0
  H  H122  1  0.19279000  0.29409000  0.89051000  1.0
  H  H123  1  0.24678000  0.34768000  0.92920000  1.0
  H  H124  1  0.34485000  0.17460000  0.90597000  1.0
  H  H125  1  0.29156000  0.18289000  0.86726000  1.0
  H  H126  1  0.31078000  0.23265000  0.90645000  1.0
  H  H127  1  0.26024000  0.24895000  0.86772000  1.0
  H  H128  1  0.27852000  0.29106000  0.91408000  1.0
  H  H129  1  0.23606000  0.31755000  0.87444000  1.0
  H  H130  1  0.31950000  0.31943000  0.39098000  1.0
  H  H131  1  0.13259000  0.20557000  0.39985000  1.0
  H  H132  1  0.15700000  0.21975000  0.34482000  1.0
  H  H133  1  0.19365000  0.24472000  0.39115000  1.0
  H  H134  1  0.22725000  0.25554000  0.33860000  1.0
  H  H135  1  0.25636000  0.28333000  0.38720000  1.0
  H  H136  1  0.29767000  0.29276000  0.33853000  1.0
  H  H137  1  0.34415000  0.27876000  0.39942000  1.0
  H  H138  1  0.15827000  0.16441000  0.39971000  1.0
  H  H139  1  0.18422000  0.17883000  0.34586000  1.0
  H  H140  1  0.21917000  0.20345000  0.39535000  1.0
  H  H141  1  0.25386000  0.21487000  0.34477000  1.0
  H  H142  1  0.28113000  0.24249000  0.39567000  1.0
  H  H143  1  0.32261000  0.25177000  0.34749000  1.0
  H  H144  1  0.56433000  0.24320000  0.31932000  1.0
  H  H145  1  0.68212000  0.10681000  0.23535000  1.0
  H  H146  1  0.60816000  0.10681000  0.22656000  1.0
  H  H147  1  0.64093000  0.15195000  0.26300000  1.0
  H  H148  1  0.56821000  0.15447000  0.25262000  1.0
  H  H149  1  0.60152000  0.19746000  0.29074000  1.0
  H  H150  1  0.52924000  0.20282000  0.28048000  1.0
  H  H151  1  0.57747000  0.27575000  0.28893000  1.0
  H  H152  1  0.68835000  0.13556000  0.20082000  1.0
  H  H153  1  0.61650000  0.13763000  0.19407000  1.0
  H  H154  1  0.65048000  0.18284000  0.23072000  1.0
  H  H155  1  0.57850000  0.18636000  0.22111000  1.0
  H  H156  1  0.61255000  0.22930000  0.25947000  1.0
  H  H157  1  0.54076000  0.23528000  0.24958000  1.0
  H  H158  1  0.36383000  0.65685000  0.73967000  1.0
  H  H159  1  0.25999000  0.51767000  0.84857000  1.0
  H  H160  1  0.21787000  0.55414000  0.80875000  1.0
  H  H161  1  0.28566000  0.57090000  0.81623000  1.0
  H  H162  1  0.25822000  0.58780000  0.76125000  1.0
  H  H163  1  0.31769000  0.61916000  0.77793000  1.0
  H  H164  1  0.31169000  0.61634000  0.71807000  1.0
  H  H165  1  0.39315000  0.61899000  0.74985000  1.0
  H  H166  1  0.25680000  0.48101000  0.82082000  1.0
  H  H167  1  0.22737000  0.51822000  0.78121000  1.0
  H  H168  1  0.30186000  0.53013000  0.79801000  1.0
  H  H169  1  0.28316000  0.54915000  0.74635000  1.0
  H  H170  1  0.34561000  0.57895000  0.77617000  1.0
  H  H171  1  0.34219000  0.57755000  0.71874000  1.0
  H  H172  1  0.81099000  0.33394000  0.18601000  1.0
  H  H173  1  0.92423000  0.18298000  0.25277000  1.0
  H  H174  1  0.95994000  0.24374000  0.24611000  1.0
  H  H175  1  0.88829000  0.23456000  0.23068000  1.0
  H  H176  1  0.92287000  0.29425000  0.21980000  1.0
  H  H177  1  0.85053000  0.28480000  0.20792000  1.0
  H  H178  1  0.88488000  0.34347000  0.19397000  1.0
  H  H179  1  0.80383000  0.35660000  0.22350000  1.0
  H  H180  1  0.90744000  0.19634000  0.29056000  1.0
  H  H181  1  0.94481000  0.25733000  0.28491000  1.0
  H  H182  1  0.87472000  0.25019000  0.26915000  1.0
  H  H183  1  0.91101000  0.31027000  0.25863000  1.0
  H  H184  1  0.83948000  0.30222000  0.24640000  1.0
  H  H185  1  0.87558000  0.36156000  0.23251000  1.0
  H  H186  1  0.23582000  0.00826000  0.82615000  1.0
  H  H187  1  0.09280000  0.87895000  0.75074000  1.0
  H  H188  1  0.14404000  0.91447000  0.71735000  1.0
  H  H189  1  0.14270000  0.91849000  0.77495000  1.0
  H  H190  1  0.20287000  0.94726000  0.74566000  1.0
  H  H191  1  0.18908000  0.96147000  0.80029000  1.0
  H  H192  1  0.25929000  0.97930000  0.77945000  1.0
  H  H193  1  0.23801000  0.96730000  0.84878000  1.0
  H  H194  1  0.12135000  0.83935000  0.74688000  1.0
  H  H195  1  0.17367000  0.87497000  0.71905000  1.0
  H  H196  1  0.16972000  0.87784000  0.77873000  1.0
  H  H197  1  0.22875000  0.90735000  0.75670000  1.0
  H  H198  1  0.20915000  0.91990000  0.81381000  1.0
  H  H199  1  0.27524000  0.94010000  0.80061000  1.0
  H  H200  1  0.37209000  0.91336000  0.77593000  1.0
  H  H201  1  0.45665000  0.77844000  0.67453000  1.0
  H  H202  1  0.47511000  0.77266000  0.72940000  1.0
  H  H203  1  0.42535000  0.81899000  0.71141000  1.0
  H  H204  1  0.45247000  0.82491000  0.76536000  1.0
  H  H205  1  0.39846000  0.86419000  0.74523000  1.0
  H  H206  1  0.42754000  0.87767000  0.79806000  1.0
  H  H207  1  0.33693000  0.88330000  0.79542000  1.0
  H  H208  1  0.41048000  0.75353000  0.68053000  1.0
  H  H209  1  0.43364000  0.74124000  0.73714000  1.0
  H  H210  1  0.38684000  0.78760000  0.72478000  1.0
  H  H211  1  0.41493000  0.79256000  0.77965000  1.0
  H  H212  1  0.36262000  0.83270000  0.76249000  1.0
  H  H213  1  0.39153000  0.84637000  0.81578000  1.0
  H  H214  1  0.58900000  0.36472000  0.32880000  1.0
  H  H215  1  0.75442000  0.45943000  0.24631000  1.0
  H  H216  1  0.70591000  0.42130000  0.21342000  1.0
  H  H217  1  0.69666000  0.43051000  0.27096000  1.0
  H  H218  1  0.64206000  0.39477000  0.24099000  1.0
  H  H219  1  0.64217000  0.39845000  0.29874000  1.0
  H  H220  1  0.57907000  0.37084000  0.27269000  1.0
  H  H221  1  0.57743000  0.41108000  0.33647000  1.0
  H  H222  1  0.72857000  0.49949000  0.23607000  1.0
  H  H223  1  0.67955000  0.46176000  0.20527000  1.0
  H  H224  1  0.67125000  0.47135000  0.26362000  1.0
  H  H225  1  0.61631000  0.43650000  0.23805000  1.0
  H  H226  1  0.62026000  0.44192000  0.29784000  1.0
  H  H227  1  0.55817000  0.41481000  0.27731000  1.0
  H  H228  1  0.14439000  0.58772000  0.79062000  1.0
  H  H229  1  0.05613000  0.76868000  0.74729000  1.0
  H  H230  1  0.04986000  0.71052000  0.70969000  1.0
  H  H231  1  0.09131000  0.70981000  0.75459000  1.0
  H  H232  1  0.05888000  0.64530000  0.73908000  1.0
  H  H233  1  0.11911000  0.64732000  0.76752000  1.0
  H  H234  1  0.07497000  0.58853000  0.77814000  1.0
  H  H235  1  0.14035000  0.61833000  0.82275000  1.0
  H  H236  1  0.00535000  0.75725000  0.75618000  1.0
  H  H237  1  0.00577000  0.69930000  0.73169000  1.0
  H  H238  1  0.05153000  0.71199000  0.78192000  1.0
  H  H239  1  0.02952000  0.65025000  0.77388000  1.0
  H  H240  1  0.09800000  0.66576000  0.80235000  1.0
  H  H241  1  0.06333000  0.60924000  0.81528000  1.0
  H  H242  1  0.75637000  0.96566000  0.24155000  1.0
  H  H243  1  0.91004000  0.05291000  0.34201000  1.0
  H  H244  1  0.92572000  0.05255000  0.28311000  1.0
  H  H245  1  0.86319000  0.02583000  0.30477000  1.0
  H  H246  1  0.86762000  0.02811000  0.24539000  1.0
  H  H247  1  0.81047000  0.99729000  0.27211000  1.0
  H  H248  1  0.80672000  0.00245000  0.21248000  1.0
  H  H249  1  0.72993000  0.00595000  0.25041000  1.0
  H  H250  1  0.89435000  0.09836000  0.33755000  1.0
  H  H251  1  0.90485000  0.09676000  0.28027000  1.0
  H  H252  1  0.84195000  0.06962000  0.30436000  1.0
  H  H253  1  0.84371000  0.07096000  0.24619000  1.0
  H  H254  1  0.78654000  0.03967000  0.27508000  1.0
  H  H255  1  0.77959000  0.04307000  0.21743000  1.0
  C  C256  1  0.66676000  0.08157000  0.19158000  1.0
  C  C257  1  0.72478000  0.98751000  0.20323000  1.0
  C  C258  1  0.61524000  0.95791000  0.18192000  1.0
  C  C259  1  0.70966000  0.86606000  0.13472000  1.0
  C  C260  1  0.62863000  0.97073000  0.09118000  1.0
  C  C261  1  0.72637000  0.00745000  0.11341000  1.0
  C  C262  1  0.59073000  0.72000000  0.61463000  1.0
  C  C263  1  0.50203000  0.60283000  0.59682000  1.0
  C  C264  1  0.52478000  0.62652000  0.67839000  1.0
  C  C265  1  0.39317000  0.63135000  0.70181000  1.0
  C  C266  1  0.45974000  0.72098000  0.67849000  1.0
  C  C267  1  0.42949000  0.68054000  0.59834000  1.0
  C  C268  1  0.82788000  0.38994000  0.18664000  1.0
  C  C269  1  0.76193000  0.47738000  0.19921000  1.0
  C  C270  1  0.87423000  0.51471000  0.19326000  1.0
  C  C271  1  0.76312000  0.59361000  0.12913000  1.0
  C  C272  1  0.87746000  0.50991000  0.10122000  1.0
  C  C273  1  0.78248000  0.46516000  0.10371000  1.0
  C  C274  1  0.88073000  0.80222000  0.62870000  1.0
  C  C275  1  0.97179000  0.87559000  0.61184000  1.0
  C  C276  1  0.96552000  0.86775000  0.70448000  1.0
  C  C277  1  0.09272000  0.85677000  0.70539000  1.0
  C  C278  1  0.01637000  0.77521000  0.70951000  1.0
  C  C279  1  0.01939000  0.77618000  0.62529000  1.0
  C  C280  1  0.37141000  0.91918000  0.82506000  1.0
  C  C281  1  0.29255000  0.99451000  0.84272000  1.0
  C  C282  1  0.32954000  0.97065000  0.92591000  1.0
  C  C283  1  0.32105000  0.12081000  0.89877000  1.0
  C  C284  1  0.42907000  0.02672000  0.92135000  1.0
  C  C285  1  0.40512000  0.04153000  0.83976000  1.0
  C  C286  1  0.51727000  0.27288000  0.30220000  1.0
  C  C287  1  0.52840000  0.37437000  0.32747000  1.0
  C  C288  1  0.42001000  0.36021000  0.28827000  1.0
  C  C289  1  0.44567000  0.43146000  0.41063000  1.0
  C  C290  1  0.37312000  0.31300000  0.36626000  1.0
  C  C291  1  0.47057000  0.30972000  0.39929000  1.0
  C  C292  1  0.12096000  0.56469000  0.83275000  1.0
  C  C293  1  0.20389000  0.49266000  0.84472000  1.0
  C  C294  1  0.17534000  0.51610000  0.92883000  1.0
  C  C295  1  0.19777000  0.37149000  0.90846000  1.0
  C  C296  1  0.08089000  0.45561000  0.93423000  1.0
  C  C297  1  0.09412000  0.43896000  0.85026000  1.0
  C  C298  1  0.96771000  0.18616000  0.28851000  1.0
  C  C299  1  0.95566000  0.09363000  0.33491000  1.0
  C  C300  1  0.06320000  0.09115000  0.30922000  1.0
  C  C301  1  0.02932000  0.06196000  0.43865000  1.0
  C  C302  1  0.10624000  0.16392000  0.37148000  1.0
  C  C303  1  0.00426000  0.17415000  0.39038000  1.0
  C  C304  1  0.46565000  0.03584000  0.93990000  1.0
  C  C305  1  0.61096000  0.96874000  0.05888000  1.0
  C  C306  1  0.56993000  0.98427000  0.05581000  1.0
  C  C307  1  0.56034000  0.99045000  0.02090000  1.0
  C  C308  1  0.51713000  0.99857000  0.01466000  1.0
  C  C309  1  0.51214000  0.01317000  0.98108000  1.0
  C  C310  1  0.46910000  0.01265000  0.96983000  1.0
  C  C311  1  0.51333000  0.57455000  0.57357000  1.0
  C  C312  1  0.45521000  0.46696000  0.42726000  1.0
  C  C313  1  0.45067000  0.46656000  0.46323000  1.0
  C  C314  1  0.47381000  0.49981000  0.47768000  1.0
  C  C315  1  0.46227000  0.50866000  0.51169000  1.0
  C  C316  1  0.49275000  0.53603000  0.52653000  1.0
  C  C317  1  0.47842000  0.55451000  0.55661000  1.0
  C  C318  1  0.91094000  0.52082000  0.07995000  1.0
  C  C319  1  0.05540000  0.44777000  0.96236000  1.0
  C  C320  1  0.01975000  0.47160000  0.96680000  1.0
  C  C321  1  0.00654000  0.47057000  0.00144000  1.0
  C  C322  1  0.96465000  0.48332000  0.00677000  1.0
  C  C323  1  0.95885000  0.49434000  0.04137000  1.0
  C  C324  1  0.91535000  0.49543000  0.05131000  1.0
  C  C325  1  0.03313000  0.04497000  0.47048000  1.0
  C  C326  1  0.95892000  0.90518000  0.59046000  1.0
  C  C327  1  0.98442000  0.91126000  0.56077000  1.0
  C  C328  1  0.98221000  0.95072000  0.54888000  1.0
  C  C329  1  0.99752000  0.95645000  0.51509000  1.0
  C  C330  1  0.00757000  0.99714000  0.50881000  1.0
  C  C331  1  0.01293000  0.00670000  0.47371000  1.0
  C  C332  1  0.70771000  0.82774000  0.12237000  1.0
  C  C333  1  0.74262000  0.62777000  0.12191000  1.0
  C  C334  1  0.75969000  0.66308000  0.13740000  1.0
  C  C335  1  0.73465000  0.69496000  0.12753000  1.0
  C  C336  1  0.74906000  0.73245000  0.14062000  1.0
  C  C337  1  0.72271000  0.76198000  0.12790000  1.0
  C  C338  1  0.73322000  0.80093000  0.13992000  1.0
  C  C339  1  0.62749000  0.73950000  0.60308000  1.0
  C  C340  1  0.84305000  0.79903000  0.61051000  1.0
  C  C341  1  0.80952000  0.78031000  0.62965000  1.0
  C  C342  1  0.77130000  0.77725000  0.61032000  1.0
  C  C343  1  0.73704000  0.75812000  0.62830000  1.0
  C  C344  1  0.69931000  0.75722000  0.60836000  1.0
  C  C345  1  0.66378000  0.73776000  0.62451000  1.0
  C  C346  1  0.21749000  0.33827000  0.91993000  1.0
  C  C347  1  0.31631000  0.15933000  0.90959000  1.0
  C  C348  1  0.28416000  0.18001000  0.89254000  1.0
  C  C349  1  0.28139000  0.21817000  0.90758000  1.0
  C  C350  1  0.25112000  0.24258000  0.89217000  1.0
  C  C351  1  0.24846000  0.27829000  0.91111000  1.0
  C  C352  1  0.22215000  0.30687000  0.89631000  1.0
  C  C353  1  0.33543000  0.29699000  0.38015000  1.0
  C  C354  1  0.14280000  0.18358000  0.38447000  1.0
  C  C355  1  0.17220000  0.20073000  0.36043000  1.0
  C  C356  1  0.20621000  0.22194000  0.37795000  1.0
  C  C357  1  0.23969000  0.23765000  0.35668000  1.0
  C  C358  1  0.27081000  0.25996000  0.37635000  1.0
  C  C359  1  0.30724000  0.27489000  0.35781000  1.0
  C  C360  1  0.55488000  0.25486000  0.29665000  1.0
  C  C361  1  0.66935000  0.11423000  0.21235000  1.0
  C  C362  1  0.62834000  0.12879000  0.21705000  1.0
  C  C363  1  0.62984000  0.16105000  0.23987000  1.0
  C  C364  1  0.58914000  0.17636000  0.24408000  1.0
  C  C365  1  0.59106000  0.20773000  0.26779000  1.0
  C  C366  1  0.55099000  0.22423000  0.27231000  1.0
  C  C367  1  0.37211000  0.62926000  0.73239000  1.0
  C  C368  1  0.24157000  0.50507000  0.82945000  1.0
  C  C369  1  0.23839000  0.53269000  0.80268000  1.0
  C  C370  1  0.27927000  0.55095000  0.79695000  1.0
  C  C371  1  0.28331000  0.57017000  0.76517000  1.0
  C  C372  1  0.32187000  0.59370000  0.76446000  1.0
  C  C373  1  0.33547000  0.60319000  0.73109000  1.0
  C  C374  1  0.82356000  0.35431000  0.20301000  1.0
  C  C375  1  0.93189000  0.20022000  0.27357000  1.0
  C  C376  1  0.93647000  0.24033000  0.26406000  1.0
  C  C377  1  0.89756000  0.25265000  0.25061000  1.0
  C  C378  1  0.90094000  0.29203000  0.23903000  1.0
  C  C379  1  0.86108000  0.30372000  0.22692000  1.0
  C  C380  1  0.86395000  0.34252000  0.21397000  1.0
  C  C381  1  0.25287000  0.98368000  0.82997000  1.0
  C  C382  1  0.11380000  0.86519000  0.73539000  1.0
  C  C383  1  0.15082000  0.89007000  0.73136000  1.0
  C  C384  1  0.16567000  0.90225000  0.76389000  1.0
  C  C385  1  0.20455000  0.92504000  0.76318000  1.0
  C  C386  1  0.21211000  0.94170000  0.79577000  1.0
  C  C387  1  0.25279000  0.96098000  0.79966000  1.0
  C  C388  1  0.36738000  0.89544000  0.79666000  1.0
  C  C389  1  0.44189000  0.75569000  0.68780000  1.0
  C  C390  1  0.44419000  0.76500000  0.72287000  1.0
  C  C391  1  0.41795000  0.79715000  0.72878000  1.0
  C  C392  1  0.42187000  0.81379000  0.76173000  1.0
  C  C393  1  0.39316000  0.84454000  0.76477000  1.0
  C  C394  1  0.39716000  0.86541000  0.79590000  1.0
  C  C395  1  0.57018000  0.38696000  0.32136000  1.0
  C  C396  1  0.73669000  0.47221000  0.22779000  1.0
  C  C397  1  0.69866000  0.44849000  0.22257000  1.0
  C  C398  1  0.67696000  0.44390000  0.25413000  1.0
  C  C399  1  0.63756000  0.42150000  0.25227000  1.0
  C  C400  1  0.62133000  0.41520000  0.28562000  1.0
  C  C401  1  0.57996000  0.39625000  0.28694000  1.0
  C  C402  1  0.12475000  0.59547000  0.80997000  1.0
  C  C403  1  0.02851000  0.75510000  0.73813000  1.0
  C  C404  1  0.03476000  0.71452000  0.73245000  1.0
  C  C405  1  0.06039000  0.70017000  0.75909000  1.0
  C  C406  1  0.05785000  0.65854000  0.76252000  1.0
  C  C407  1  0.09245000  0.64636000  0.78252000  1.0
  C  C408  1  0.08581000  0.60809000  0.79651000  1.0
  C  C409  1  0.74848000  0.99275000  0.23275000  1.0
  C  C410  1  0.91478000  0.07839000  0.32826000  1.0
  C  C411  1  0.90423000  0.07078000  0.29357000  1.0
  C  C412  1  0.86269000  0.05214000  0.29198000  1.0
  C  C413  1  0.84681000  0.04469000  0.25855000  1.0
  C  C414  1  0.80649000  0.02383000  0.26034000  1.0
  C  C415  1  0.78651000  0.01663000  0.22825000  1.0
  O  O416  1  0.65391000  0.08270000  0.16238000  1.0
  O  O417  1  0.67378000  0.04843000  0.20153000  1.0
  O  O418  1  0.73027000  0.95707000  0.18637000  1.0
  O  O419  1  0.69786000  0.01269000  0.19730000  1.0
  O  O420  1  0.64553000  0.96337000  0.16442000  1.0
  O  O421  1  0.60078000  0.98974000  0.18654000  1.0
  O  O422  1  0.73246000  0.89230000  0.12281000  1.0
  O  O423  1  0.68050000  0.87907000  0.15029000  1.0
  O  O424  1  0.62458000  0.00162000  0.10750000  1.0
  O  O425  1  0.65148000  0.94336000  0.09919000  1.0
  O  O426  1  0.70814000  0.00239000  0.13912000  1.0
  O  O427  1  0.73409000  0.97552000  0.10367000  1.0
  O  O428  1  0.58765000  0.70042000  0.64035000  1.0
  O  O429  1  0.55773000  0.72004000  0.59863000  1.0
  O  O430  1  0.46946000  0.59628000  0.61390000  1.0
  O  O431  1  0.52661000  0.63240000  0.59933000  1.0
  O  O432  1  0.49651000  0.64695000  0.67228000  1.0
  O  O433  1  0.55491000  0.63971000  0.66330000  1.0
  O  O434  1  0.40680000  0.60248000  0.68799000  1.0
  O  O435  1  0.40418000  0.66253000  0.68813000  1.0
  O  O436  1  0.49624000  0.72404000  0.66666667  1.0
  O  O437  1  0.43450000  0.69141000  0.67611000  1.0
  O  O438  1  0.46002000  0.67456000  0.61531000  1.0
  O  O439  1  0.39989000  0.65982000  0.60889000  1.0
  O  O440  1  0.84631000  0.39367000  0.15962000  1.0
  O  O441  1  0.81611000  0.42085000  0.19867000  1.0
  O  O442  1  0.75555000  0.50642000  0.18109000  1.0
  O  O443  1  0.79267000  0.45562000  0.19656000  1.0
  O  O444  1  0.84596000  0.51186000  0.17285000  1.0
  O  O445  1  0.88930000  0.48262000  0.19647000  1.0
  O  O446  1  0.75099000  0.56194000  0.11733000  1.0
  O  O447  1  0.79373000  0.59132000  0.14774000  1.0
  O  O448  1  0.88056000  0.47848000  0.11660000  1.0
  O  O449  1  0.85020000  0.53432000  0.10678000  1.0
  O  O450  1  0.78968000  0.46602000  0.13321000  1.0
  O  O451  1  0.77685000  0.49804000  0.09503000  1.0
  O  O452  1  0.89443000  0.77493000  0.64467000  1.0
  O  O453  1  0.90346000  0.83258000  0.63032000  1.0
  O  O454  1  0.01034000  0.87529000  0.61791000  1.0
  O  O455  1  0.94330000  0.85477000  0.62627000  1.0
  O  O456  1  0.98672000  0.85111000  0.68447000  1.0
  O  O457  1  0.93035000  0.85144000  0.70432000  1.0
  O  O458  1  0.08224000  0.88175000  0.68539000  1.0
  O  O459  1  0.07558000  0.82437000  0.69972000  1.0
  O  O460  1  0.97863000  0.77222000  0.70107000  1.0
  O  O461  1  0.04344000  0.79912000  0.69750000  1.0
  O  O462  1  0.99717000  0.80209000  0.63236000  1.0
  O  O463  1  0.05540000  0.78841000  0.62941000  1.0
  O  O464  1  0.40556000  0.92990000  0.83746000  1.0
  O  O465  1  0.34106000  0.93432000  0.83824000  1.0
  O  O466  1  0.29711000  0.02900000  0.85325000  1.0
  O  O467  1  0.31767000  0.96759000  0.84738000  1.0
  O  O468  1  0.34285000  0.99536000  0.90676000  1.0
  O  O469  1  0.34417000  0.93977000  0.91747000  1.0
  O  O470  1  0.34114000  0.11235000  0.87379000  1.0
  O  O471  1  0.31479000  0.09266000  0.91734000  1.0
  O  O472  1  0.42757000  0.99435000  0.90665000  1.0
  O  O473  1  0.40275000  0.05263000  0.91836000  1.0
  O  O474  1  0.37747000  0.01902000  0.84823000  1.0
  O  O475  1  0.39846000  0.07223000  0.85286000  1.0
  O  O476  1  0.48613000  0.25647000  0.31524000  1.0
  O  O477  1  0.51496000  0.30865000  0.30027000  1.0
  O  O478  1  0.51052000  0.39044000  0.35119000  1.0
  O  O479  1  0.51353000  0.34444000  0.31240000  1.0
  O  O480  1  0.43053000  0.36486000  0.31783000  1.0
  O  O481  1  0.42682000  0.32760000  0.27688000  1.0
  O  O482  1  0.46250000  0.40098000  0.41726000  1.0
  O  O483  1  0.42946000  0.43044000  0.38258000  1.0
  O  O484  1  0.39300000  0.29330000  0.34592000  1.0
  O  O485  1  0.38711000  0.34468000  0.37841000  1.0
  O  O486  1  0.48006000  0.31899000  0.37103000  1.0
  O  O487  1  0.45849000  0.33804000  0.41411000  1.0
  O  O488  1  0.08820000  0.55404000  0.84714000  1.0
  O  O489  1  0.15223000  0.54892000  0.84365000  1.0
  O  O490  1  0.20296000  0.45841000  0.85574000  1.0
  O  O491  1  0.17728000  0.51800000  0.85071000  1.0
  O  O492  1  0.16024000  0.49043000  0.91125000  1.0
  O  O493  1  0.15793000  0.54598000  0.92153000  1.0
  O  O494  1  0.17347000  0.37299000  0.88447000  1.0
  O  O495  1  0.20122000  0.40243000  0.92386000  1.0
  O  O496  1  0.07691000  0.48702000  0.91863000  1.0
  O  O497  1  0.10872000  0.43155000  0.92910000  1.0
  O  O498  1  0.12121000  0.46311000  0.85637000  1.0
  O  O499  1  0.10454000  0.40942000  0.86325000  1.0
  O  O500  1  0.99727000  0.20689000  0.29975000  1.0
  O  O501  1  0.97112000  0.15100000  0.29381000  1.0
  O  O502  1  0.97148000  0.08244000  0.36197000  1.0
  O  O503  1  0.97119000  0.12014000  0.31591000  1.0
  O  O504  1  0.05256000  0.10716000  0.33434000  1.0
  O  O505  1  0.05875000  0.11427000  0.28641000  1.0
  O  O506  1  0.01121000  0.09213000  0.43446000  1.0
  O  O507  1  0.04947000  0.05320000  0.41377000  1.0
  O  O508  1  0.08936000  0.17749000  0.34562000  1.0
  O  O509  1  0.09107000  0.13629000  0.38921000  1.0
  O  O510  1  0.00245000  0.15345000  0.36619000  1.0
  O  O511  1  0.01561000  0.15452000  0.41346000  1.0
