# generated using pymatgen
data_CuH24(C8N3)6
_symmetry_space_group_name_H-M   'P 1'
_cell_length_a   22.17000000
_cell_length_b   34.23310000
_cell_length_c   40.19650000
_cell_angle_alpha   90.00000000
_cell_angle_beta   90.00000000
_cell_angle_gamma   105.36300000
_symmetry_Int_Tables_number   1
_chemical_formula_structural   CuH24(C8N3)6
_chemical_formula_sum   'Cu8 H192 C384 N144'
_cell_volume   29416.92864101
_cell_formula_units_Z   8
loop_
 _symmetry_equiv_pos_site_id
 _symmetry_equiv_pos_as_xyz
  1  'x, y, z'
loop_
 _atom_site_type_symbol
 _atom_site_label
 _atom_site_symmetry_multiplicity
 _atom_site_fract_x
 _atom_site_fract_y
 _atom_site_fract_z
 _atom_site_occupancy
  C  C0  1  0.36406000  0.99278000  0.58198000  1.0
  C  C1  1  0.30328000  0.02736000  0.61526000  1.0
  C  C2  1  0.38732000  0.06558000  0.58202000  1.0
  C  C3  1  0.25474000  0.17289000  0.61555000  1.0
  C  C4  1  0.31510000  0.99114000  0.60436000  1.0
  C  C5  1  0.29088000  0.17161000  0.67092000  1.0
  C  C6  1  0.40178000  0.03025000  0.57089000  1.0
  C  C7  1  0.23650000  0.20829000  0.62197000  1.0
  C  C8  1  0.24404000  0.22444000  0.65379000  1.0
  C  C9  1  0.26930000  0.20530000  0.67900000  1.0
  C  C10  1  0.43808000  0.23097000  0.57913000  1.0
  C  C11  1  0.41516000  0.17782000  0.61945000  1.0
  C  C12  1  0.37912000  0.16353000  0.56396000  1.0
  C  C13  1  0.42244000  0.15949000  0.65148000  1.0
  C  C14  1  0.44266000  0.21823000  0.61150000  1.0
  C  C15  1  0.39568000  0.09787000  0.68217000  1.0
  C  C16  1  0.41166000  0.20294000  0.55413000  1.0
  C  C17  1  0.47104000  0.17632000  0.67352000  1.0
  C  C18  1  0.48210000  0.15336000  0.70003000  1.0
  C  C19  1  0.44662000  0.11317000  0.70418000  1.0
  C  C20  1  0.17440000  0.12867000  0.53747000  1.0
  C  C21  1  0.23936000  0.14912000  0.58524000  1.0
  C  C22  1  0.22262000  0.08206000  0.56529000  1.0
  C  C23  1  0.25504000  0.02998000  0.64001000  1.0
  C  C24  1  0.20390000  0.15888000  0.55936000  1.0
  C  C25  1  0.17052000  0.00278000  0.67896000  1.0
  C  C26  1  0.21156000  0.07467000  0.67147000  1.0
  C  C27  1  0.17866000  0.08888000  0.54210000  1.0
  C  C28  1  0.21282000  0.99642000  0.65494000  1.0
  C  C29  1  0.17022000  0.04225000  0.68785000  1.0
  C  C30  1  0.69368000  0.55244000  0.58462000  1.0
  C  C31  1  0.74282000  0.51036000  0.61744000  1.0
  C  C32  1  0.65984000  0.47967000  0.58028000  1.0
  C  C33  1  0.76892000  0.35825000  0.61338000  1.0
  C  C34  1  0.73784000  0.54890000  0.60831000  1.0
  C  C35  1  0.73186000  0.35929000  0.66863000  1.0
  C  C36  1  0.65414000  0.51783000  0.56980000  1.0
  C  C37  1  0.78116000  0.32073000  0.61891000  1.0
  C  C38  1  0.77108000  0.30357000  0.65033000  1.0
  C  C39  1  0.74906000  0.32361000  0.67623000  1.0
  C  C40  1  0.58706000  0.31284000  0.57194000  1.0
  C  C41  1  0.61292000  0.36345000  0.61419000  1.0
  C  C42  1  0.65360000  0.37928000  0.55967000  1.0
  C  C43  1  0.60674000  0.38010000  0.64699000  1.0
  C  C44  1  0.58190000  0.32422000  0.60458000  1.0
  C  C45  1  0.64124000  0.43806000  0.68163000  1.0
  C  C46  1  0.61782000  0.34133000  0.54818000  1.0
  C  C47  1  0.55652000  0.36379000  0.66819000  1.0
  C  C48  1  0.54880000  0.38509000  0.69638000  1.0
  C  C49  1  0.58942000  0.42323000  0.70305000  1.0
  C  C50  1  0.85992000  0.40297000  0.53813000  1.0
  C  C51  1  0.78976000  0.38318000  0.58406000  1.0
  C  C52  1  0.81566000  0.45147000  0.56603000  1.0
  C  C53  1  0.78788000  0.50315000  0.64231000  1.0
  C  C54  1  0.82576000  0.37272000  0.55872000  1.0
  C  C55  1  0.87340000  0.52367000  0.68187000  1.0
  C  C56  1  0.82374000  0.45326000  0.67143000  1.0
  C  C57  1  0.85932000  0.44337000  0.54334000  1.0
  C  C58  1  0.83340000  0.53398000  0.65845000  1.0
  C  C59  1  0.86812000  0.48296000  0.68913000  1.0
  C  C60  1  0.69332000  0.03889000  0.42839000  1.0
  C  C61  1  0.75324000  0.99998000  0.39897000  1.0
  C  C62  1  0.66860000  0.96638000  0.43397000  1.0
  C  C63  1  0.78848000  0.85094000  0.40730000  1.0
  C  C64  1  0.74254000  0.03758000  0.40681000  1.0
  C  C65  1  0.75054000  0.84992000  0.35213000  1.0
  C  C66  1  0.65470000  0.00296000  0.44173000  1.0
  C  C67  1  0.80100000  0.81327000  0.40276000  1.0
  C  C68  1  0.78764000  0.79403000  0.37219000  1.0
  C  C69  1  0.76254000  0.81245000  0.34651000  1.0
  C  C70  1  0.59894000  0.79974000  0.43905000  1.0
  C  C71  1  0.62906000  0.85302000  0.39915000  1.0
  C  C72  1  0.66516000  0.86503000  0.45488000  1.0
  C  C73  1  0.62570000  0.87192000  0.36691000  1.0
  C  C74  1  0.59664000  0.81332000  0.40680000  1.0
  C  C75  1  0.66128000  0.93294000  0.33603000  1.0
  C  C76  1  0.62834000  0.82642000  0.46427000  1.0
  C  C77  1  0.57690000  0.85738000  0.34440000  1.0
  C  C78  1  0.57020000  0.88126000  0.31760000  1.0
  C  C79  1  0.61028000  0.92017000  0.31368000  1.0
  C  C80  1  0.87494000  0.89857000  0.48290000  1.0
  C  C81  1  0.80684000  0.87651000  0.43651000  1.0
  C  C82  1  0.82784000  0.94491000  0.45389000  1.0
  C  C83  1  0.80194000  0.99381000  0.37569000  1.0
  C  C84  1  0.84310000  0.86749000  0.46234000  1.0
  C  C85  1  0.89354000  0.01530000  0.34020000  1.0
  C  C86  1  0.84828000  0.94476000  0.35233000  1.0
  C  C87  1  0.87192000  0.93840000  0.47711000  1.0
  C  C88  1  0.84708000  0.02498000  0.35982000  1.0
  C  C89  1  0.89586000  0.97489000  0.33686000  1.0
  C  C90  1  0.33216000  0.47388000  0.43140000  1.0
  C  C91  1  0.28292000  0.51755000  0.40038000  1.0
  C  C92  1  0.36588000  0.54637000  0.43813000  1.0
  C  C93  1  0.25974000  0.67013000  0.40806000  1.0
  C  C94  1  0.28786000  0.47856000  0.40811000  1.0
  C  C95  1  0.29404000  0.66752000  0.35240000  1.0
  C  C96  1  0.37182000  0.50779000  0.44709000  1.0
  C  C97  1  0.24664000  0.70733000  0.40206000  1.0
  C  C98  1  0.25600000  0.72388000  0.37034000  1.0
  C  C99  1  0.27776000  0.70333000  0.34473000  1.0
  C  C100  1  0.44662000  0.71477000  0.44570000  1.0
  C  C101  1  0.41580000  0.66345000  0.40432000  1.0
  C  C102  1  0.37912000  0.64917000  0.45972000  1.0
  C  C103  1  0.41922000  0.64589000  0.37160000  1.0
  C  C104  1  0.44882000  0.70261000  0.41307000  1.0
  C  C105  1  0.38148000  0.58688000  0.33853000  1.0
  C  C106  1  0.41694000  0.68707000  0.47022000  1.0
  C  C107  1  0.46850000  0.66093000  0.34951000  1.0
  C  C108  1  0.47414000  0.63840000  0.32171000  1.0
  C  C109  1  0.43246000  0.60030000  0.31635000  1.0
  C  C110  1  0.17348000  0.62705000  0.48515000  1.0
  C  C111  1  0.24084000  0.64588000  0.43799000  1.0
  C  C112  1  0.21610000  0.57794000  0.45698000  1.0
  C  C113  1  0.23662000  0.52613000  0.37680000  1.0
  C  C114  1  0.20640000  0.65689000  0.46379000  1.0
  C  C115  1  0.14610000  0.50784000  0.34027000  1.0
  C  C116  1  0.19316000  0.57731000  0.35508000  1.0
  C  C117  1  0.17376000  0.58653000  0.48023000  1.0
  C  C118  1  0.19096000  0.49637000  0.35979000  1.0
  C  C119  1  0.14538000  0.54861000  0.33828000  1.0
  C  C120  1  0.84440000  0.48962000  0.08447000  1.0
  C  C121  1  0.78860000  0.52681000  0.11844000  1.0
  C  C122  1  0.86724000  0.56224000  0.08095000  1.0
  C  C123  1  0.74642000  0.67430000  0.11317000  1.0
  C  C124  1  0.79926000  0.48977000  0.10880000  1.0
  C  C125  1  0.78488000  0.67457000  0.16817000  1.0
  C  C126  1  0.87834000  0.52610000  0.06986000  1.0
  C  C127  1  0.73222000  0.71132000  0.11849000  1.0
  C  C128  1  0.74500000  0.72985000  0.14936000  1.0
  C  C129  1  0.77110000  0.71134000  0.17461000  1.0
  C  C130  1  0.93994000  0.72631000  0.07716000  1.0
  C  C131  1  0.90744000  0.67504000  0.11866000  1.0
  C  C132  1  0.86990000  0.66148000  0.06328000  1.0
  C  C133  1  0.91228000  0.65679000  0.15109000  1.0
  C  C134  1  0.94124000  0.71410000  0.10986000  1.0
  C  C135  1  0.88046000  0.59609000  0.18279000  1.0
  C  C136  1  0.90850000  0.69907000  0.05273000  1.0
  C  C137  1  0.96088000  0.67279000  0.17341000  1.0
  C  C138  1  0.96942000  0.64991000  0.20047000  1.0
  C  C139  1  0.93152000  0.61045000  0.20498000  1.0
  C  C140  1  0.65892000  0.62690000  0.03785000  1.0
  C  C141  1  0.72814000  0.64909000  0.08377000  1.0
  C  C142  1  0.70760000  0.58083000  0.06611000  1.0
  C  C143  1  0.74092000  0.53140000  0.14275000  1.0
  C  C144  1  0.69092000  0.65798000  0.05836000  1.0
  C  C145  1  0.64960000  0.50711000  0.17777000  1.0
  C  C146  1  0.69136000  0.57831000  0.16670000  1.0
  C  C147  1  0.66248000  0.58710000  0.04335000  1.0
  C  C148  1  0.69720000  0.49910000  0.15816000  1.0
  C  C149  1  0.64484000  0.54694000  0.18146000  1.0
  C  C150  1  0.19114000  0.03461000  0.08605000  1.0
  C  C151  1  0.25184000  0.99853000  0.11801000  1.0
  C  C152  1  0.16924000  0.96199000  0.08297000  1.0
  C  C153  1  0.30000000  0.85260000  0.11389000  1.0
  C  C154  1  0.23954000  0.03519000  0.10866000  1.0
  C  C155  1  0.26492000  0.85356000  0.16958000  1.0
  C  C156  1  0.15446000  0.99773000  0.07321000  1.0
  C  C157  1  0.31842000  0.81716000  0.12003000  1.0
  C  C158  1  0.31100000  0.80063000  0.15179000  1.0
  C  C159  1  0.28612000  0.81957000  0.17729000  1.0
  C  C160  1  0.10472000  0.79819000  0.07776000  1.0
  C  C161  1  0.13790000  0.84938000  0.11927000  1.0
  C  C162  1  0.17306000  0.86349000  0.06354000  1.0
  C  C163  1  0.13326000  0.86769000  0.15174000  1.0
  C  C164  1  0.10444000  0.81021000  0.11059000  1.0
  C  C165  1  0.16344000  0.92919000  0.18252000  1.0
  C  C166  1  0.13468000  0.82575000  0.05316000  1.0
  C  C167  1  0.08520000  0.85156000  0.17433000  1.0
  C  C168  1  0.07602000  0.87483000  0.20104000  1.0
  C  C169  1  0.11278000  0.91473000  0.20489000  1.0
  C  C170  1  0.38494000  0.89949000  0.03769000  1.0
  C  C171  1  0.31622000  0.87719000  0.08387000  1.0
  C  C172  1  0.33462000  0.94509000  0.06537000  1.0
  C  C173  1  0.30136000  0.99472000  0.14171000  1.0
  C  C174  1  0.35372000  0.86847000  0.05850000  1.0
  C  C175  1  0.39284000  0.01988000  0.17679000  1.0
  C  C176  1  0.35318000  0.94875000  0.16532000  1.0
  C  C177  1  0.38028000  0.93915000  0.04273000  1.0
  C  C178  1  0.34462000  0.02735000  0.15714000  1.0
  C  C179  1  0.39886000  0.98030000  0.18033000  1.0
  C  C180  1  0.18196000  0.53951000  0.93497000  1.0
  C  C181  1  0.23432000  0.49966000  0.90143000  1.0
  C  C182  1  0.15310000  0.46680000  0.93834000  1.0
  C  C183  1  0.26710000  0.34918000  0.90987000  1.0
  C  C184  1  0.22658000  0.53763000  0.91077000  1.0
  C  C185  1  0.23474000  0.35018000  0.85376000  1.0
  C  C186  1  0.14542000  0.50380000  0.94950000  1.0
  C  C187  1  0.28242000  0.31249000  0.90474000  1.0
  C  C188  1  0.27586000  0.29567000  0.87310000  1.0
  C  C189  1  0.25456000  0.31547000  0.84684000  1.0
  C  C190  1  0.04592000  0.31981000  0.95116000  1.0
  C  C191  1  0.10246000  0.35604000  0.90510000  1.0
  C  C192  1  0.14346000  0.37046000  0.95994000  1.0
  C  C193  1  0.10608000  0.36964000  0.87051000  1.0
  C  C194  1  0.05120000  0.32656000  0.91740000  1.0
  C  C195  1  0.13984000  0.42855000  0.83716000  1.0
  C  C196  1  0.09132000  0.34189000  0.97323000  1.0
  C  C197  1  0.06346000  0.35056000  0.84621000  1.0
  C  C198  1  0.05608000  0.37216000  0.81825000  1.0
  C  C199  1  0.08904000  0.41303000  0.81500000  1.0
  C  C200  1  0.35598000  0.39711000  0.98462000  1.0
  C  C201  1  0.28574000  0.37479000  0.93903000  1.0
  C  C202  1  0.31008000  0.44374000  0.95521000  1.0
  C  C203  1  0.28156000  0.49331000  0.87766000  1.0
  C  C204  1  0.32226000  0.36580000  0.96478000  1.0
  C  C205  1  0.37284000  0.51502000  0.84230000  1.0
  C  C206  1  0.32856000  0.44445000  0.85490000  1.0
  C  C207  1  0.35424000  0.43710000  0.97836000  1.0
  C  C208  1  0.32628000  0.52454000  0.86171000  1.0
  C  C209  1  0.37574000  0.47473000  0.83931000  1.0
  C  C210  1  0.86850000  0.99116000  0.92733000  1.0
  C  C211  1  0.80950000  0.03045000  0.89752000  1.0
  C  C212  1  0.89466000  0.06371000  0.93222000  1.0
  C  C213  1  0.77342000  0.18016000  0.90597000  1.0
  C  C214  1  0.81968000  0.99272000  0.90557000  1.0
  C  C215  1  0.80716000  0.18022000  0.84992000  1.0
  C  C216  1  0.90768000  0.02698000  0.94051000  1.0
  C  C217  1  0.75758000  0.21667000  0.90096000  1.0
  C  C218  1  0.76406000  0.23376000  0.86944000  1.0
  C  C219  1  0.78598000  0.21458000  0.84295000  1.0
  C  C220  1  0.99380000  0.21038000  0.94851000  1.0
  C  C221  1  0.93912000  0.17368000  0.90209000  1.0
  C  C222  1  0.89684000  0.15900000  0.95672000  1.0
  C  C223  1  0.93690000  0.15948000  0.86758000  1.0
  C  C224  1  0.98944000  0.20367000  0.91470000  1.0
  C  C225  1  0.90072000  0.10059000  0.83428000  1.0
  C  C226  1  0.94846000  0.18769000  0.97032000  1.0
  C  C227  1  0.98266000  0.17666000  0.84406000  1.0
  C  C228  1  0.98998000  0.15404000  0.81665000  1.0
  C  C229  1  0.95306000  0.11421000  0.81287000  1.0
  C  C230  1  0.68134000  0.13078000  0.97950000  1.0
  C  C231  1  0.75382000  0.15404000  0.93491000  1.0
  C  C232  1  0.72992000  0.08494000  0.95091000  1.0
  C  C233  1  0.76076000  0.03661000  0.87436000  1.0
  C  C234  1  0.71554000  0.16240000  0.96010000  1.0
  C  C235  1  0.66914000  0.01501000  0.83893000  1.0
  C  C236  1  0.71336000  0.08546000  0.85170000  1.0
  C  C237  1  0.68426000  0.09096000  0.97347000  1.0
  C  C238  1  0.71588000  0.00542000  0.85836000  1.0
  C  C239  1  0.66616000  0.05532000  0.83601000  1.0
  C  C240  1  0.54092000  0.26603000  0.49776000  1.0
  C  C241  1  0.48646000  0.27950000  0.49984000  1.0
  C  C242  1  0.54888000  0.34684000  0.50382000  1.0
  C  C243  1  0.59984000  0.33189000  0.51295000  1.0
  C  C244  1  0.48086000  0.19920000  0.50833000  1.0
  C  C245  1  0.43156000  0.21457000  0.51953000  1.0
  C  C246  1  0.55240000  0.74912000  0.51746000  1.0
  C  C247  1  0.49832000  0.76293000  0.51982000  1.0
  C  C248  1  0.55940000  0.82978000  0.51016000  1.0
  C  C249  1  0.60848000  0.81432000  0.49878000  1.0
  C  C250  1  0.48908000  0.68198000  0.51327000  1.0
  C  C251  1  0.43802000  0.69723000  0.50493000  1.0
  C  C252  1  0.04590000  0.75376000  0.00077000  1.0
  C  C253  1  0.99568000  0.77157000  0.00090000  1.0
  C  C254  1  0.06670000  0.83570000  0.00895000  1.0
  C  C255  1  0.11258000  0.81636000  0.01854000  1.0
  C  C256  1  0.97476000  0.68946000  0.00774000  1.0
  C  C257  1  0.92900000  0.70862000  0.01788000  1.0
  C  C258  1  0.05082000  0.26260000  0.02563000  1.0
  C  C259  1  0.98850000  0.26495000  0.02556000  1.0
  C  C260  1  0.02476000  0.33596000  0.02124000  1.0
  C  C261  1  0.08198000  0.33121000  0.00894000  1.0
  C  C262  1  0.01490000  0.19197000  0.01827000  1.0
  C  C263  1  0.95792000  0.19735000  0.00618000  1.0
  C  C264  1  0.02250000  0.03330000  0.51121000  1.0
  C  C265  1  0.02904000  0.99422000  0.50668000  1.0
  C  C266  1  0.13530000  0.01630000  0.52281000  1.0
  C  C267  1  0.12880000  0.05563000  0.52777000  1.0
  C  C268  1  0.91616000  0.01121000  0.49534000  1.0
  C  C269  1  0.92252000  0.97183000  0.49056000  1.0
  C  C270  1  0.01878000  0.49534000  0.51479000  1.0
  C  C271  1  0.01482000  0.53492000  0.50967000  1.0
  C  C272  1  0.90778000  0.51545000  0.52449000  1.0
  C  C273  1  0.91162000  0.47561000  0.52989000  1.0
  C  C274  1  0.12570000  0.51475000  0.49981000  1.0
  C  C275  1  0.12182000  0.55455000  0.49428000  1.0
  C  C276  1  0.50566000  0.53161000  0.01272000  1.0
  C  C277  1  0.51148000  0.49226000  0.00883000  1.0
  C  C278  1  0.61750000  0.51390000  0.02562000  1.0
  C  C279  1  0.61180000  0.55356000  0.02980000  1.0
  C  C280  1  0.39968000  0.51008000  0.99600000  1.0
  C  C281  1  0.40532000  0.47042000  0.99180000  1.0
  C  C282  1  0.53514000  0.99552000  0.00952000  1.0
  C  C283  1  0.52844000  0.03467000  0.00579000  1.0
  C  C284  1  0.42346000  0.01246000  0.02441000  1.0
  C  C285  1  0.43002000  0.97296000  0.02845000  1.0
  C  C286  1  0.64016000  0.01766000  0.99112000  1.0
  C  C287  1  0.63376000  0.05719000  0.98713000  1.0
  C  C288  1  0.55418000  0.03451000  0.50536000  1.0
  C  C289  1  0.50066000  0.00165000  0.50506000  1.0
  C  C290  1  0.54550000  0.97065000  0.46268000  1.0
  C  C291  1  0.60012000  0.00315000  0.46326000  1.0
  C  C292  1  0.50928000  0.06518000  0.54810000  1.0
  C  C293  1  0.45526000  0.03220000  0.54793000  1.0
  C  C294  1  0.50830000  0.49495000  0.51810000  1.0
  C  C295  1  0.51834000  0.52948000  0.49794000  1.0
  C  C296  1  0.61710000  0.55582000  0.52325000  1.0
  C  C297  1  0.60706000  0.52156000  0.54415000  1.0
  C  C298  1  0.40954000  0.46864000  0.49267000  1.0
  C  C299  1  0.41936000  0.50319000  0.47212000  1.0
  C  C300  1  0.00770000  0.50147000  0.02288000  1.0
  C  C301  1  0.01820000  0.53029000  0.99719000  1.0
  C  C302  1  0.93636000  0.55558000  0.01792000  1.0
  C  C303  1  0.92602000  0.52694000  0.04394000  1.0
  C  C304  1  0.08910000  0.47592000  0.00211000  1.0
  C  C305  1  0.09916000  0.50429000  0.97589000  1.0
  C  C306  1  0.00508000  0.99484000  0.00574000  1.0
  C  C307  1  0.05862000  0.02768000  0.00627000  1.0
  C  C308  1  0.01616000  0.05896000  0.96305000  1.0
  C  C309  1  0.96140000  0.02652000  0.96279000  1.0
  C  C310  1  0.04778000  0.96368000  0.04907000  1.0
  C  C311  1  0.10186000  0.99660000  0.04975000  1.0
  C  C312  1  0.26876000  0.27375000  0.74949000  1.0
  C  C313  1  0.25948000  0.24710000  0.77660000  1.0
  C  C314  1  0.26130000  0.19310000  0.74063000  1.0
  C  C315  1  0.26996000  0.21978000  0.71333000  1.0
  C  C316  1  0.26670000  0.32774000  0.78530000  1.0
  C  C317  1  0.25678000  0.30101000  0.81261000  1.0
  C  C318  1  0.76306000  0.25596000  0.74594000  1.0
  C  C319  1  0.76654000  0.28129000  0.77354000  1.0
  C  C320  1  0.75188000  0.33351000  0.73872000  1.0
  C  C321  1  0.74952000  0.30839000  0.71068000  1.0
  C  C322  1  0.77806000  0.20380000  0.78068000  1.0
  C  C323  1  0.78190000  0.22923000  0.80864000  1.0
  C  C324  1  0.79134000  0.75990000  0.27098000  1.0
  C  C325  1  0.74130000  0.76271000  0.25061000  1.0
  C  C326  1  0.70258000  0.79637000  0.29331000  1.0
  C  C327  1  0.75314000  0.79398000  0.31359000  1.0
  C  C328  1  0.83034000  0.72653000  0.22817000  1.0
  C  C329  1  0.77986000  0.72904000  0.20784000  1.0
  C  C330  1  0.28644000  0.77444000  0.27472000  1.0
  C  C331  1  0.27922000  0.74861000  0.24714000  1.0
  C  C332  1  0.27352000  0.69297000  0.28264000  1.0
  C  C333  1  0.28092000  0.71886000  0.31046000  1.0
  C  C334  1  0.29134000  0.82999000  0.23923000  1.0
  C  C335  1  0.28404000  0.80409000  0.21146000  1.0
  C  C336  1  0.03808000  0.05500000  0.74128000  1.0
  C  C337  1  0.07164000  0.07653000  0.76801000  1.0
  C  C338  1  0.16640000  0.07130000  0.74418000  1.0
  C  C339  1  0.13380000  0.05071000  0.71668000  1.0
  C  C340  1  0.94402000  0.06481000  0.76433000  1.0
  C  C341  1  0.97840000  0.08806000  0.79023000  1.0
  C  C342  1  0.96584000  0.44257000  0.76694000  1.0
  C  C343  1  0.99922000  0.47126000  0.74430000  1.0
  C  C344  1  0.09446000  0.46754000  0.77025000  1.0
  C  C345  1  0.06068000  0.43749000  0.79206000  1.0
  C  C346  1  0.87106000  0.44285000  0.74052000  1.0
  C  C347  1  0.90370000  0.47079000  0.71690000  1.0
  C  C348  1  0.03390000  0.93730000  0.28079000  1.0
  C  C349  1  0.01600000  0.97197000  0.27134000  1.0
  C  C350  1  0.07712000  0.97606000  0.22213000  1.0
  C  C351  1  0.09168000  0.93968000  0.23054000  1.0
  C  C352  1  0.96886000  0.93030000  0.32820000  1.0
  C  C353  1  0.94740000  0.96372000  0.31810000  1.0
  C  C354  1  0.02616000  0.55306000  0.27258000  1.0
  C  C355  1  0.01090000  0.58889000  0.28114000  1.0
  C  C356  1  0.07680000  0.59610000  0.32826000  1.0
  C  C357  1  0.09554000  0.56130000  0.31906000  1.0
  C  C358  1  0.96398000  0.54841000  0.22370000  1.0
  C  C359  1  0.95194000  0.58581000  0.23119000  1.0
  C  C360  1  0.52386000  0.54520000  0.24692000  1.0
  C  C361  1  0.50400000  0.57944000  0.23827000  1.0
  C  C362  1  0.56832000  0.58880000  0.19056000  1.0
  C  C363  1  0.59200000  0.55611000  0.20011000  1.0
  C  C364  1  0.46486000  0.53929000  0.29686000  1.0
  C  C365  1  0.44904000  0.57549000  0.28942000  1.0
  C  C366  1  0.53888000  0.94563000  0.23661000  1.0
  C  C367  1  0.51734000  0.97867000  0.24687000  1.0
  C  C368  1  0.57422000  0.98127000  0.29735000  1.0
  C  C369  1  0.59204000  0.94627000  0.28810000  1.0
  C  C370  1  0.47760000  0.93973000  0.18788000  1.0
  C  C371  1  0.45210000  0.97109000  0.19886000  1.0
  C  C372  1  0.51358000  0.44038000  0.78109000  1.0
  C  C373  1  0.49688000  0.47614000  0.77390000  1.0
  C  C374  1  0.55832000  0.48396000  0.72472000  1.0
  C  C375  1  0.57126000  0.44651000  0.73066000  1.0
  C  C376  1  0.44746000  0.42974000  0.82816000  1.0
  C  C377  1  0.42706000  0.46425000  0.82009000  1.0
  C  C378  1  0.54542000  0.05737000  0.77070000  1.0
  C  C379  1  0.52752000  0.09213000  0.77989000  1.0
  C  C380  1  0.59300000  0.09982000  0.82714000  1.0
  C  C381  1  0.61446000  0.06631000  0.81727000  1.0
  C  C382  1  0.48360000  0.05243000  0.72170000  1.0
  C  C383  1  0.46896000  0.08885000  0.72984000  1.0
  Cu  Cu384  1  0.31474000  0.11057000  0.62218000  1.0
  Cu  Cu385  1  0.71952000  0.42553000  0.62082000  1.0
  Cu  Cu386  1  0.73612000  0.91612000  0.39726000  1.0
  Cu  Cu387  1  0.30722000  0.60234000  0.40004000  1.0
  Cu  Cu388  1  0.80210000  0.61038000  0.12174000  1.0
  Cu  Cu389  1  0.24128000  0.91521000  0.12152000  1.0
  Cu  Cu390  1  0.21604000  0.41505000  0.89963000  1.0
  Cu  Cu391  1  0.82562000  0.11484000  0.89620000  1.0
  H  H392  1  0.20984000  0.10484000  0.67765000  1.0
  H  H393  1  0.21270000  0.96571000  0.64876000  1.0
  H  H394  1  0.22740000  0.25084000  0.65898000  1.0
  H  H395  1  0.31276000  0.15722000  0.68956000  1.0
  H  H396  1  0.21466000  0.22277000  0.60339000  1.0
  H  H397  1  0.13964000  0.97704000  0.69132000  1.0
  H  H398  1  0.14328000  0.13566000  0.51898000  1.0
  H  H399  1  0.22842000  0.05208000  0.56905000  1.0
  H  H400  1  0.19484000  0.18824000  0.55721000  1.0
  H  H401  1  0.37336000  0.96473000  0.57400000  1.0
  H  H402  1  0.41482000  0.09473000  0.57373000  1.0
  H  H403  1  0.28792000  0.96193000  0.61307000  1.0
  H  H404  1  0.52164000  0.16633000  0.71606000  1.0
  H  H405  1  0.36656000  0.06725000  0.68492000  1.0
  H  H406  1  0.50258000  0.20596000  0.66956000  1.0
  H  H407  1  0.45972000  0.26230000  0.57317000  1.0
  H  H408  1  0.35390000  0.14199000  0.54581000  1.0
  H  H409  1  0.46728000  0.23976000  0.62976000  1.0
  H  H410  1  0.82178000  0.42204000  0.67584000  1.0
  H  H411  1  0.83824000  0.56565000  0.65355000  1.0
  H  H412  1  0.78394000  0.27560000  0.65462000  1.0
  H  H413  1  0.71192000  0.37462000  0.68738000  1.0
  H  H414  1  0.80082000  0.30539000  0.60001000  1.0
  H  H415  1  0.90696000  0.54741000  0.69500000  1.0
  H  H416  1  0.89112000  0.39521000  0.52008000  1.0
  H  H417  1  0.81304000  0.48206000  0.57034000  1.0
  H  H418  1  0.83154000  0.34256000  0.55607000  1.0
  H  H419  1  0.68992000  0.58247000  0.57852000  1.0
  H  H420  1  0.62920000  0.45255000  0.56996000  1.0
  H  H421  1  0.76698000  0.57620000  0.61927000  1.0
  H  H422  1  0.50828000  0.37275000  0.71191000  1.0
  H  H423  1  0.67414000  0.46705000  0.68634000  1.0
  H  H424  1  0.52164000  0.33594000  0.66251000  1.0
  H  H425  1  0.56274000  0.28238000  0.56479000  1.0
  H  H426  1  0.68228000  0.40078000  0.54260000  1.0
  H  H427  1  0.55436000  0.30246000  0.62180000  1.0
  H  H428  1  0.84854000  0.91356000  0.34987000  1.0
  H  H429  1  0.84766000  0.05642000  0.36288000  1.0
  H  H430  1  0.79768000  0.76505000  0.36847000  1.0
  H  H431  1  0.73280000  0.86522000  0.33241000  1.0
  H  H432  1  0.82136000  0.79883000  0.42201000  1.0
  H  H433  1  0.92882000  0.03948000  0.32857000  1.0
  H  H434  1  0.90650000  0.89200000  0.50135000  1.0
  H  H435  1  0.82364000  0.97504000  0.44896000  1.0
  H  H436  1  0.85108000  0.83792000  0.46532000  1.0
  H  H437  1  0.68448000  0.06783000  0.43393000  1.0
  H  H438  1  0.64068000  0.93837000  0.44422000  1.0
  H  H439  1  0.77066000  0.06550000  0.39626000  1.0
  H  H440  1  0.53052000  0.87033000  0.30120000  1.0
  H  H441  1  0.69356000  0.96258000  0.33343000  1.0
  H  H442  1  0.54194000  0.82904000  0.34822000  1.0
  H  H443  1  0.57384000  0.76893000  0.44471000  1.0
  H  H444  1  0.69246000  0.88527000  0.47325000  1.0
  H  H445  1  0.57012000  0.79283000  0.38838000  1.0
  H  H446  1  0.19356000  0.60865000  0.35390000  1.0
  H  H447  1  0.18876000  0.46457000  0.36171000  1.0
  H  H448  1  0.24348000  0.75186000  0.36559000  1.0
  H  H449  1  0.31276000  0.65162000  0.33354000  1.0
  H  H450  1  0.22732000  0.72297000  0.42090000  1.0
  H  H451  1  0.11074000  0.48465000  0.32766000  1.0
  H  H452  1  0.14320000  0.63515000  0.50355000  1.0
  H  H453  1  0.21828000  0.54724000  0.45265000  1.0
  H  H454  1  0.20074000  0.68711000  0.46622000  1.0
  H  H455  1  0.33590000  0.44360000  0.43659000  1.0
  H  H456  1  0.39626000  0.57305000  0.44926000  1.0
  H  H457  1  0.25830000  0.45183000  0.39654000  1.0
  H  H458  1  0.51406000  0.64967000  0.30551000  1.0
  H  H459  1  0.34790000  0.55792000  0.33480000  1.0
  H  H460  1  0.50434000  0.68863000  0.35427000  1.0
  H  H461  1  0.47234000  0.74517000  0.45221000  1.0
  H  H462  1  0.35128000  0.62832000  0.47752000  1.0
  H  H463  1  0.47584000  0.72374000  0.39521000  1.0
  H  H464  1  0.68910000  0.60911000  0.16950000  1.0
  H  H465  1  0.69826000  0.46802000  0.15459000  1.0
  H  H466  1  0.73366000  0.75833000  0.15365000  1.0
  H  H467  1  0.80350000  0.65917000  0.18749000  1.0
  H  H468  1  0.71086000  0.72571000  0.09964000  1.0
  H  H469  1  0.61520000  0.48209000  0.18898000  1.0
  H  H470  1  0.62686000  0.63346000  0.01969000  1.0
  H  H471  1  0.71254000  0.55080000  0.07074000  1.0
  H  H472  1  0.68244000  0.68745000  0.05568000  1.0
  H  H473  1  0.85222000  0.46104000  0.07678000  1.0
  H  H474  1  0.89516000  0.59069000  0.07154000  1.0
  H  H475  1  0.77336000  0.46133000  0.11950000  1.0
  H  H476  1  0.00904000  0.66224000  0.21661000  1.0
  H  H477  1  0.84944000  0.56610000  0.18590000  1.0
  H  H478  1  0.99438000  0.70167000  0.16941000  1.0
  H  H479  1  0.96818000  0.75619000  0.07059000  1.0
  H  H480  1  0.84182000  0.64078000  0.04546000  1.0
  H  H481  1  0.96914000  0.73499000  0.12756000  1.0
  H  H482  1  0.35704000  0.91830000  0.16777000  1.0
  H  H483  1  0.34246000  0.05824000  0.15372000  1.0
  H  H484  1  0.32730000  0.77404000  0.15669000  1.0
  H  H485  1  0.24376000  0.86806000  0.18845000  1.0
  H  H486  1  0.34020000  0.80291000  0.10127000  1.0
  H  H487  1  0.42664000  0.04509000  0.18813000  1.0
  H  H488  1  0.41716000  0.89301000  0.01958000  1.0
  H  H489  1  0.32854000  0.97490000  0.06967000  1.0
  H  H490  1  0.36310000  0.83923000  0.05607000  1.0
  H  H491  1  0.18160000  0.06295000  0.07912000  1.0
  H  H492  1  0.14254000  0.93330000  0.07336000  1.0
  H  H493  1  0.26626000  0.06390000  0.11855000  1.0
  H  H494  1  0.03676000  0.86245000  0.21739000  1.0
  H  H495  1  0.19348000  0.95956000  0.18507000  1.0
  H  H496  1  0.05244000  0.82230000  0.17074000  1.0
  H  H497  1  0.07666000  0.76823000  0.07127000  1.0
  H  H498  1  0.19994000  0.88453000  0.04555000  1.0
  H  H499  1  0.07738000  0.78916000  0.12847000  1.0
  H  H500  1  0.32948000  0.41337000  0.85284000  1.0
  H  H501  1  0.32656000  0.55596000  0.86453000  1.0
  H  H502  1  0.29080000  0.26842000  0.86888000  1.0
  H  H503  1  0.21596000  0.36529000  0.83435000  1.0
  H  H504  1  0.30200000  0.29776000  0.92412000  1.0
  H  H505  1  0.40772000  0.53930000  0.83052000  1.0
  H  H506  1  0.38754000  0.39041000  0.00300000  1.0
  H  H507  1  0.30676000  0.47398000  0.94992000  1.0
  H  H508  1  0.32898000  0.33596000  0.96819000  1.0
  H  H509  1  0.17674000  0.56874000  0.94268000  1.0
  H  H510  1  0.12236000  0.43925000  0.94755000  1.0
  H  H511  1  0.25466000  0.56550000  0.90014000  1.0
  H  H512  1  0.01974000  0.35793000  0.80072000  1.0
  H  H513  1  0.16900000  0.45915000  0.83445000  1.0
  H  H514  1  0.03320000  0.32038000  0.84933000  1.0
  H  H515  1  0.00518000  0.29729000  0.96008000  1.0
  H  H516  1  0.17952000  0.38753000  0.97635000  1.0
  H  H517  1  0.01388000  0.30962000  0.90172000  1.0
  H  H518  1  0.71238000  0.11655000  0.84976000  1.0
  H  H519  1  0.71576000  0.97401000  0.86111000  1.0
  H  H520  1  0.74828000  0.26076000  0.86553000  1.0
  H  H521  1  0.82680000  0.16553000  0.83058000  1.0
  H  H522  1  0.73738000  0.23103000  0.92033000  1.0
  H  H523  1  0.63418000  0.99081000  0.82713000  1.0
  H  H524  1  0.64880000  0.13716000  0.99747000  1.0
  H  H525  1  0.73438000  0.05492000  0.94577000  1.0
  H  H526  1  0.70798000  0.19202000  0.96343000  1.0
  H  H527  1  0.87654000  0.96209000  0.93321000  1.0
  H  H528  1  0.92358000  0.09142000  0.94219000  1.0
  H  H529  1  0.79114000  0.96482000  0.89521000  1.0
  H  H530  1  0.02856000  0.16652000  0.79988000  1.0
  H  H531  1  0.86962000  0.07060000  0.83136000  1.0
  H  H532  1  0.01542000  0.20593000  0.84744000  1.0
  H  H533  1  0.03404000  0.23308000  0.95777000  1.0
  H  H534  1  0.86070000  0.14155000  0.97289000  1.0
  H  H535  1  0.02678000  0.22108000  0.89927000  1.0
  H  H536  1  0.55070000  0.37839000  0.50789000  1.0
  H  H537  1  0.48052000  0.16807000  0.51336000  1.0
  H  H538  1  0.56028000  0.86108000  0.50556000  1.0
  H  H539  1  0.48676000  0.65041000  0.50894000  1.0
  H  H540  1  0.07322000  0.86763000  0.01395000  1.0
  H  H541  1  0.96818000  0.65742000  0.01219000  1.0
  H  H542  1  0.01320000  0.36453000  0.01803000  1.0
  H  H543  1  0.02668000  0.16366000  0.01392000  1.0
  H  H544  1  0.17932000  0.00918000  0.52715000  1.0
  H  H545  1  0.87206000  0.01830000  0.49115000  1.0
  H  H546  1  0.86446000  0.52374000  0.52804000  1.0
  H  H547  1  0.16898000  0.50643000  0.49613000  1.0
  H  H548  1  0.66116000  0.50648000  0.03040000  1.0
  H  H549  1  0.35604000  0.51753000  0.99130000  1.0
  H  H550  1  0.37990000  0.01963000  0.02993000  1.0
  H  H551  1  0.68378000  0.01047000  0.98579000  1.0
  H  H552  1  0.54066000  0.94558000  0.44564000  1.0
  H  H553  1  0.51418000  0.09008000  0.56531000  1.0
  H  H554  1  0.66010000  0.57974000  0.52428000  1.0
  H  H555  1  0.36654000  0.44471000  0.49145000  1.0
  H  H556  1  0.90804000  0.57674000  0.01539000  1.0
  H  H557  1  0.11712000  0.45456000  0.00454000  1.0
  H  H558  1  0.02210000  0.08414000  0.94602000  1.0
  H  H559  1  0.04212000  0.93851000  0.06609000  1.0
  H  H560  1  0.25644000  0.16107000  0.73739000  1.0
  H  H561  1  0.27176000  0.35981000  0.78838000  1.0
  H  H562  1  0.74924000  0.36440000  0.73651000  1.0
  H  H563  1  0.78026000  0.17277000  0.78296000  1.0
  H  H564  1  0.66718000  0.81042000  0.30207000  1.0
  H  H565  1  0.86596000  0.71272000  0.21937000  1.0
  H  H566  1  0.26638000  0.66066000  0.28531000  1.0
  H  H567  1  0.29782000  0.86225000  0.23645000  1.0
  H  H568  1  0.21690000  0.07830000  0.74542000  1.0
  H  H569  1  0.89416000  0.06105000  0.76221000  1.0
  H  H570  1  0.14502000  0.47692000  0.77094000  1.0
  H  H571  1  0.82066000  0.43172000  0.73955000  1.0
  H  H572  1  0.09174000  0.99066000  0.19851000  1.0
  H  H573  1  0.95200000  0.91388000  0.35079000  1.0
  H  H574  1  0.09470000  0.61307000  0.35045000  1.0
  H  H575  1  0.94794000  0.53306000  0.20054000  1.0
  H  H576  1  0.58430000  0.60593000  0.16817000  1.0
  H  H577  1  0.45210000  0.52433000  0.32053000  1.0
  H  H578  1  0.58560000  0.99446000  0.32177000  1.0
  H  H579  1  0.46334000  0.92435000  0.16453000  1.0
  H  H580  1  0.57342000  0.50044000  0.70191000  1.0
  H  H581  1  0.42990000  0.41151000  0.84979000  1.0
  H  H582  1  0.60994000  0.11653000  0.84960000  1.0
  H  H583  1  0.46862000  0.03744000  0.69827000  1.0
  N  N584  1  0.28204000  0.15580000  0.63973000  1.0
  N  N585  1  0.38388000  0.12202000  0.65702000  1.0
  N  N586  1  0.25340000  0.11283000  0.58559000  1.0
  N  N587  1  0.33862000  0.06326000  0.60323000  1.0
  N  N588  1  0.37844000  0.15307000  0.59692000  1.0
  N  N589  1  0.25314000  0.06809000  0.64849000  1.0
  N  N590  1  0.74332000  0.37610000  0.63775000  1.0
  N  N591  1  0.64934000  0.41540000  0.65466000  1.0
  N  N592  1  0.78084000  0.42091000  0.58519000  1.0
  N  N593  1  0.70418000  0.47688000  0.60320000  1.0
  N  N594  1  0.65324000  0.38805000  0.59298000  1.0
  N  N595  1  0.78434000  0.46372000  0.64904000  1.0
  N  N596  1  0.76296000  0.86787000  0.38232000  1.0
  N  N597  1  0.66882000  0.90773000  0.36142000  1.0
  N  N598  1  0.79502000  0.91347000  0.43484000  1.0
  N  N599  1  0.71686000  0.96587000  0.41332000  1.0
  N  N600  1  0.66764000  0.87610000  0.42200000  1.0
  N  N601  1  0.80266000  0.95466000  0.37070000  1.0
  N  N602  1  0.28420000  0.65173000  0.38359000  1.0
  N  N603  1  0.37530000  0.61077000  0.36504000  1.0
  N  N604  1  0.24978000  0.60811000  0.43711000  1.0
  N  N605  1  0.32150000  0.55020000  0.41569000  1.0
  N  N606  1  0.37644000  0.63969000  0.42647000  1.0
  N  N607  1  0.23810000  0.56578000  0.37299000  1.0
  N  N608  1  0.77308000  0.65736000  0.13768000  1.0
  N  N609  1  0.87098000  0.62033000  0.15704000  1.0
  N  N610  1  0.74078000  0.61238000  0.08500000  1.0
  N  N611  1  0.82258000  0.56169000  0.10414000  1.0
  N  N612  1  0.86820000  0.65140000  0.09638000  1.0
  N  N613  1  0.73822000  0.57004000  0.14836000  1.0
  N  N614  1  0.27254000  0.86921000  0.13830000  1.0
  N  N615  1  0.17356000  0.90463000  0.15721000  1.0
  N  N616  1  0.30220000  0.91351000  0.08456000  1.0
  N  N617  1  0.21736000  0.96331000  0.10437000  1.0
  N  N618  1  0.17590000  0.87335000  0.09668000  1.0
  N  N619  1  0.30540000  0.95637000  0.14728000  1.0
  N  N620  1  0.24214000  0.36634000  0.88480000  1.0
  N  N621  1  0.14882000  0.40517000  0.86366000  1.0
  N  N622  1  0.27576000  0.41217000  0.93678000  1.0
  N  N623  1  0.19794000  0.46555000  0.91571000  1.0
  N  N624  1  0.14692000  0.37753000  0.92620000  1.0
  N  N625  1  0.28240000  0.45414000  0.87294000  1.0
  N  N626  1  0.79976000  0.16373000  0.88096000  1.0
  N  N627  1  0.89268000  0.12466000  0.86044000  1.0
  N  N628  1  0.76466000  0.11687000  0.93290000  1.0
  N  N629  1  0.84610000  0.06458000  0.91172000  1.0
  N  N630  1  0.89398000  0.15231000  0.92295000  1.0
  N  N631  1  0.75954000  0.07571000  0.86970000  1.0
  N  N632  1  0.49184000  0.31994000  0.50005000  1.0
  N  N633  1  0.59706000  0.29303000  0.50373000  1.0
  N  N634  1  0.53594000  0.22571000  0.49953000  1.0
  N  N635  1  0.43284000  0.25331000  0.51078000  1.0
  N  N636  1  0.50396000  0.80337000  0.51856000  1.0
  N  N637  1  0.60638000  0.77524000  0.50689000  1.0
  N  N638  1  0.54640000  0.70861000  0.51688000  1.0
  N  N639  1  0.44182000  0.73629000  0.51398000  1.0
  N  N640  1  0.00786000  0.81254000  0.00237000  1.0
  N  N641  1  0.10366000  0.77685000  0.00932000  1.0
  N  N642  1  0.03370000  0.71276000  0.00154000  1.0
  N  N643  1  0.93782000  0.74826000  0.00906000  1.0
  N  N644  1  0.97718000  0.30202000  0.02633000  1.0
  N  N645  1  0.09664000  0.29612000  0.01705000  1.0
  N  N646  1  0.06220000  0.22555000  0.02489000  1.0
  N  N647  1  0.94308000  0.23205000  0.01536000  1.0
  N  N648  1  0.08518000  0.98650000  0.51235000  1.0
  N  N649  1  0.07220000  0.06287000  0.52166000  1.0
  N  N650  1  0.96636000  0.04104000  0.50561000  1.0
  N  N651  1  0.97918000  0.96458000  0.49646000  1.0
  N  N652  1  0.95956000  0.54419000  0.51445000  1.0
  N  N653  1  0.96738000  0.46680000  0.52478000  1.0
  N  N654  1  0.07400000  0.48605000  0.50997000  1.0
  N  N655  1  0.06614000  0.56342000  0.49953000  1.0
  N  N656  1  0.56716000  0.48419000  0.01519000  1.0
  N  N657  1  0.55560000  0.56109000  0.02309000  1.0
  N  N658  1  0.45004000  0.53973000  0.00640000  1.0
  N  N659  1  0.46146000  0.46275000  0.99846000  1.0
  N  N660  1  0.47284000  0.04234000  0.01314000  1.0
  N  N661  1  0.48614000  0.96583000  0.02074000  1.0
  N  N662  1  0.59070000  0.98780000  0.00225000  1.0
  N  N663  1  0.57760000  0.06441000  0.99470000  1.0
  N  N664  1  0.49736000  0.97063000  0.48361000  1.0
  N  N665  1  0.60262000  0.03459000  0.48454000  1.0
  N  N666  1  0.55728000  0.06550000  0.52690000  1.0
  N  N667  1  0.45278000  0.00118000  0.52627000  1.0
  N  N668  1  0.57262000  0.55899000  0.50085000  1.0
  N  N669  1  0.55262000  0.49172000  0.54066000  1.0
  N  N670  1  0.45406000  0.46538000  0.51506000  1.0
  N  N671  1  0.47388000  0.53289000  0.47559000  1.0
  N  N672  1  0.98214000  0.55658000  0.99521000  1.0
  N  N673  1  0.96200000  0.50039000  0.04556000  1.0
  N  N674  1  0.04360000  0.47513000  0.02488000  1.0
  N  N675  1  0.06356000  0.53110000  0.97431000  1.0
  N  N676  1  0.06312000  0.05882000  0.98478000  1.0
  N  N677  1  0.95776000  0.99496000  0.98414000  1.0
  N  N678  1  0.00084000  0.96363000  0.02720000  1.0
  N  N679  1  0.10546000  0.02791000  0.02820000  1.0
  N  N680  1  0.25614000  0.20743000  0.77168000  1.0
  N  N681  1  0.27352000  0.25950000  0.71860000  1.0
  N  N682  1  0.27226000  0.31341000  0.75434000  1.0
  N  N683  1  0.25380000  0.26130000  0.80744000  1.0
  N  N684  1  0.76050000  0.31936000  0.76944000  1.0
  N  N685  1  0.75490000  0.27006000  0.71534000  1.0
  N  N686  1  0.76890000  0.21785000  0.75002000  1.0
  N  N687  1  0.77578000  0.26742000  0.80409000  1.0
  N  N688  1  0.69784000  0.78064000  0.26218000  1.0
  N  N689  1  0.79608000  0.77555000  0.30194000  1.0
  N  N690  1  0.83488000  0.74207000  0.25937000  1.0
  N  N691  1  0.73676000  0.74727000  0.21959000  1.0
  N  N692  1  0.27292000  0.70851000  0.25163000  1.0
  N  N693  1  0.28706000  0.75904000  0.30560000  1.0
  N  N694  1  0.29236000  0.81451000  0.27024000  1.0
  N  N695  1  0.27836000  0.76397000  0.21626000  1.0
  N  N696  1  0.13472000  0.08386000  0.76906000  1.0
  N  N697  1  0.06986000  0.04255000  0.71595000  1.0
  N  N698  1  0.97476000  0.04914000  0.74029000  1.0
  N  N699  1  0.04130000  0.09249000  0.79138000  1.0
  N  N700  1  0.06294000  0.48348000  0.74671000  1.0
  N  N701  1  0.99708000  0.42666000  0.78983000  1.0
  N  N702  1  0.90276000  0.42930000  0.76481000  1.0
  N  N703  1  0.96746000  0.48499000  0.71962000  1.0
  N  N704  1  0.03900000  0.99102000  0.24247000  1.0
  N  N705  1  0.07022000  0.92183000  0.26015000  1.0
  N  N706  1  0.01074000  0.91766000  0.30919000  1.0
  N  N707  1  0.97294000  0.98439000  0.29006000  1.0
  N  N708  1  0.03580000  0.60923000  0.30896000  1.0
  N  N709  1  0.06830000  0.54009000  0.29157000  1.0
  N  N710  1  0.00140000  0.53322000  0.24431000  1.0
  N  N711  1  0.97518000  0.60452000  0.26023000  1.0
  N  N712  1  0.52574000  0.59999000  0.21005000  1.0
  N  N713  1  0.56768000  0.53436000  0.22781000  1.0
  N  N714  1  0.50268000  0.52534000  0.27571000  1.0
  N  N715  1  0.46816000  0.59400000  0.25979000  1.0
  N  N716  1  0.53656000  0.99626000  0.27678000  1.0
  N  N717  1  0.57450000  0.92993000  0.25752000  1.0
  N  N718  1  0.51942000  0.92742000  0.20715000  1.0
  N  N719  1  0.47404000  0.99056000  0.22795000  1.0
  N  N720  1  0.52070000  0.49760000  0.74621000  1.0
  N  N721  1  0.54934000  0.42623000  0.75924000  1.0
  N  N722  1  0.48938000  0.41839000  0.80829000  1.0
  N  N723  1  0.45378000  0.48721000  0.79339000  1.0
  N  N724  1  0.55090000  0.11216000  0.80808000  1.0
  N  N725  1  0.58872000  0.04527000  0.78944000  1.0
  N  N726  1  0.52210000  0.03787000  0.74206000  1.0
  N  N727  1  0.49078000  0.10720000  0.75922000  1.0
