# generated using pymatgen
data_U6H36C81O47
_symmetry_space_group_name_H-M   'P 1'
_cell_length_a   12.83610000
_cell_length_b   21.63865000
_cell_length_c   25.19220000
_cell_angle_alpha   90.00000000
_cell_angle_beta   90.00000000
_cell_angle_gamma   94.45800000
_symmetry_Int_Tables_number   1
_chemical_formula_structural   U6H36C81O47
_chemical_formula_sum   'U12 H72 C162 O94'
_cell_volume   6976.11184111
_cell_formula_units_Z   2
loop_
 _symmetry_equiv_pos_site_id
 _symmetry_equiv_pos_as_xyz
  1  'x, y, z'
loop_
 _atom_site_type_symbol
 _atom_site_label
 _atom_site_symmetry_multiplicity
 _atom_site_fract_x
 _atom_site_fract_y
 _atom_site_fract_z
 _atom_site_occupancy
  C  C0  1  0.18464000  0.78178000  0.75690000  1.0
  C  C1  1  0.19452000  0.57812000  0.68352000  1.0
  C  C2  1  0.37714000  0.64230000  0.83583000  1.0
  C  C3  1  0.91132000  0.71646000  0.83475000  1.0
  C  C4  1  0.94268000  0.52308000  0.76707000  1.0
  C  C5  1  0.11284000  0.57450000  0.92336000  1.0
  C  C6  1  0.86388000  0.69644000  0.68892000  1.0
  C  C7  1  0.13596000  0.42482000  0.82789000  1.0
  C  C8  1  0.16588000  0.74462000  0.96228000  1.0
  C  C9  1  0.21654000  0.82928000  0.21540000  1.0
  C  C10  1  0.08910000  0.71988000  0.37730000  1.0
  C  C11  1  0.29976000  0.61452000  0.24488000  1.0
  C  C12  1  0.48246000  0.88498000  0.29027000  1.0
  C  C13  1  0.36418000  0.78370000  0.44389000  1.0
  C  C14  1  0.56204000  0.69018000  0.33401000  1.0
  C  C15  1  0.13308000  0.92226000  0.33452000  1.0
  C  C16  1  0.21704000  0.57818000  0.41952000  1.0
  C  C17  1  0.48778000  0.70850000  0.15348000  1.0
  C  C18  1  0.97758000  0.38236000  0.14794000  1.0
  C  C19  1  0.81448000  0.33714000  0.02767000  1.0
  C  C20  1  0.03480000  0.23108000  0.11997000  1.0
  C  C21  1  0.78472000  0.38152000  0.26238000  1.0
  C  C22  1  0.56416000  0.25990000  0.08423000  1.0
  C  C23  1  0.79712000  0.13020000  0.20499000  1.0
  C  C24  1  0.74340000  0.47530000  0.09500000  1.0
  C  C25  1  0.68750000  0.12302000  0.03433000  1.0
  C  C26  1  0.05462000  0.21302000  0.27003000  1.0
  C  C27  1  0.36402000  0.21844000  0.61441000  1.0
  C  C28  1  0.41746000  0.06322000  0.69569000  1.0
  C  C29  1  0.58456000  0.04724000  0.53480000  1.0
  C  C30  1  0.67002000  0.30572000  0.63627000  1.0
  C  C31  1  0.67216000  0.11246000  0.77107000  1.0
  C  C32  1  0.82246000  0.16836000  0.59854000  1.0
  C  C33  1  0.42718000  0.21356000  0.78981000  1.0
  C  C34  1  0.60800000  0.94338000  0.65389000  1.0
  C  C35  1  0.60720000  0.27964000  0.48532000  1.0
  C  C36  1  0.49000000  0.66566000  0.83625000  1.0
  C  C37  1  0.51672000  0.72664000  0.85313000  1.0
  C  C38  1  0.62110000  0.74972000  0.85770000  1.0
  C  C39  1  0.70372000  0.71256000  0.84636000  1.0
  C  C40  1  0.67732000  0.65144000  0.82843000  1.0
  C  C41  1  0.57154000  0.62856000  0.82273000  1.0
  C  C42  1  0.81408000  0.73830000  0.85837000  1.0
  C  C43  1  0.67366000  0.68912000  0.35041000  1.0
  C  C44  1  0.69738000  0.67996000  0.40409000  1.0
  C  C45  1  0.80058000  0.68400000  0.42185000  1.0
  C  C46  1  0.88456000  0.69772000  0.38673000  1.0
  C  C47  1  0.86166000  0.70576000  0.33259000  1.0
  C  C48  1  0.75718000  0.70138000  0.31458000  1.0
  C  C49  1  0.99350000  0.70418000  0.40870000  1.0
  C  C50  1  0.14706000  0.23444000  0.10322000  1.0
  C  C51  1  0.17312000  0.23842000  0.04911000  1.0
  C  C52  1  0.27752000  0.24290000  0.03261000  1.0
  C  C53  1  0.36008000  0.24420000  0.06961000  1.0
  C  C54  1  0.33452000  0.24096000  0.12388000  1.0
  C  C55  1  0.22938000  0.23602000  0.14046000  1.0
  C  C56  1  0.47088000  0.24826000  0.04999000  1.0
  C  C57  1  0.24726000  0.21274000  0.61448000  1.0
  C  C58  1  0.19278000  0.16940000  0.58073000  1.0
  C  C59  1  0.08318000  0.16346000  0.57937000  1.0
  C  C60  1  0.02494000  0.20108000  0.61133000  1.0
  C  C61  1  0.07898000  0.24250000  0.64683000  1.0
  C  C62  1  0.18880000  0.24742000  0.64917000  1.0
  C  C63  1  0.91706000  0.21260000  0.59484000  1.0
  C  C64  1  0.22482000  0.84312000  0.73654000  1.0
  C  C65  1  0.32212000  0.87080000  0.75325000  1.0
  C  C66  1  0.35368000  0.93184000  0.73881000  1.0
  C  C67  1  0.28824000  0.96614000  0.70762000  1.0
  C  C68  1  0.19364000  0.93740000  0.68879000  1.0
  C  C69  1  0.16256000  0.87646000  0.70276000  1.0
  C  C70  1  0.31088000  0.03356000  0.69988000  1.0
  C  C71  1  0.24638000  0.56212000  0.21496000  1.0
  C  C72  1  0.21290000  0.50622000  0.24045000  1.0
  C  C73  1  0.15614000  0.45872000  0.21261000  1.0
  C  C74  1  0.13226000  0.46608000  0.15863000  1.0
  C  C75  1  0.16712000  0.52146000  0.13306000  1.0
  C  C76  1  0.22224000  0.56908000  0.16093000  1.0
  C  C77  1  0.07202000  0.41732000  0.12743000  1.0
  C  C78  1  0.56422000  0.93548000  0.27888000  1.0
  C  C79  1  0.66956000  0.92234000  0.28069000  1.0
  C  C80  1  0.74838000  0.96638000  0.26519000  1.0
  C  C81  1  0.72494000  0.02528000  0.24745000  1.0
  C  C82  1  0.61966000  0.03944000  0.24691000  1.0
  C  C83  1  0.53988000  0.99488000  0.26263000  1.0
  C  C84  1  0.81202000  0.06950000  0.22862000  1.0
  C  C85  1  0.70900000  0.37008000  0.64578000  1.0
  C  C86  1  0.81742000  0.38414000  0.64769000  1.0
  C  C87  1  0.86064000  0.42826000  0.68357000  1.0
  C  C88  1  0.79564000  0.45792000  0.71865000  1.0
  C  C89  1  0.68690000  0.44944000  0.71201000  1.0
  C  C90  1  0.64394000  0.40630000  0.67532000  1.0
  C  C91  1  0.83970000  0.48882000  0.76702000  1.0
  C  C92  1  0.34138000  0.23448000  0.82152000  1.0
  C  C93  1  0.36152000  0.28738000  0.85321000  1.0
  C  C94  1  0.28252000  0.32640000  0.86317000  1.0
  C  C95  1  0.18268000  0.31244000  0.84187000  1.0
  C  C96  1  0.15902000  0.25490000  0.81710000  1.0
  C  C97  1  0.23832000  0.21594000  0.80689000  1.0
  C  C98  1  0.10582000  0.35940000  0.84090000  1.0
  C  C99  1  0.08670000  0.15872000  0.29912000  1.0
  C  C100  1  0.14890000  0.11734000  0.27335000  1.0
  C  C101  1  0.14550000  0.05524000  0.28912000  1.0
  C  C102  1  0.07770000  0.03354000  0.32994000  1.0
  C  C103  1  0.02332000  0.07620000  0.35885000  1.0
  C  C104  1  0.02924000  0.13856000  0.34414000  1.0
  C  C105  1  0.05262000  0.96632000  0.33765000  1.0
  C  C106  1  0.54636000  0.67102000  0.11707000  1.0
  C  C107  1  0.50768000  0.61040000  0.10448000  1.0
  C  C108  1  0.57524000  0.56766000  0.08598000  1.0
  C  C109  1  0.68248000  0.58490000  0.08026000  1.0
  C  C110  1  0.71818000  0.64748000  0.08663000  1.0
  C  C111  1  0.65060000  0.69020000  0.10498000  1.0
  C  C112  1  0.75918000  0.53800000  0.07211000  1.0
  C  C113  1  0.78320000  0.73466000  0.66954000  1.0
  C  C114  1  0.68424000  0.72836000  0.69312000  1.0
  C  C115  1  0.61514000  0.77410000  0.68628000  1.0
  C  C116  1  0.64496000  0.82746000  0.65662000  1.0
  C  C117  1  0.74178000  0.83210000  0.63045000  1.0
  C  C118  1  0.81042000  0.78560000  0.63661000  1.0
  C  C119  1  0.57294000  0.87698000  0.65329000  1.0
  C  C120  1  0.03860000  0.52594000  0.94499000  1.0
  C  C121  1  0.07468000  0.47018000  0.96331000  1.0
  C  C122  1  0.00404000  0.41970000  0.97501000  1.0
  C  C123  1  0.89674000  0.42414000  0.96818000  1.0
  C  C124  1  0.86042000  0.47956000  0.94950000  1.0
  C  C125  1  0.93082000  0.53052000  0.93873000  1.0
  C  C126  1  0.82356000  0.36930000  0.97620000  1.0
  C  C127  1  0.54264000  0.98458000  0.51957000  1.0
  C  C128  1  0.60494000  0.93428000  0.52505000  1.0
  C  C129  1  0.56156000  0.87368000  0.51855000  1.0
  C  C130  1  0.45602000  0.86270000  0.50529000  1.0
  C  C131  1  0.39454000  0.91280000  0.49768000  1.0
  C  C132  1  0.43742000  0.97338000  0.50494000  1.0
  C  C133  1  0.41144000  0.79916000  0.49558000  1.0
  C  C134  1  0.16562000  0.77088000  0.01584000  1.0
  C  C135  1  0.17256000  0.83544000  0.02227000  1.0
  C  C136  1  0.16898000  0.86134000  0.07282000  1.0
  C  C137  1  0.16208000  0.82306000  0.11771000  1.0
  C  C138  1  0.15772000  0.75838000  0.11140000  1.0
  C  C139  1  0.15782000  0.73238000  0.06061000  1.0
  C  C140  1  0.15496000  0.85072000  0.17089000  1.0
  C  C141  1  0.20096000  0.56358000  0.62640000  1.0
  C  C142  1  0.23344000  0.61080000  0.59057000  1.0
  C  C143  1  0.22370000  0.60132000  0.53607000  1.0
  C  C144  1  0.18130000  0.54422000  0.51580000  1.0
  C  C145  1  0.15236000  0.49606000  0.55164000  1.0
  C  C146  1  0.16270000  0.50552000  0.60647000  1.0
  C  C147  1  0.16120000  0.53662000  0.45787000  1.0
  C  C148  1  0.67312000  0.10260000  0.82892000  1.0
  C  C149  1  0.69442000  0.15314000  0.86311000  1.0
  C  C150  1  0.68190000  0.14596000  0.91768000  1.0
  C  C151  1  0.64790000  0.08800000  0.93940000  1.0
  C  C152  1  0.62852000  0.03708000  0.90536000  1.0
  C  C153  1  0.64170000  0.04420000  0.85057000  1.0
  C  C154  1  0.62848000  0.08178000  0.99716000  1.0
  C  C155  1  0.63084000  0.32454000  0.44275000  1.0
  C  C156  1  0.59158000  0.31070000  0.39194000  1.0
  C  C157  1  0.62844000  0.34526000  0.34846000  1.0
  C  C158  1  0.70702000  0.39346000  0.35487000  1.0
  C  C159  1  0.74004000  0.41084000  0.40631000  1.0
  C  C160  1  0.70184000  0.37642000  0.45026000  1.0
  C  C161  1  0.75994000  0.42134000  0.30751000  1.0
  H  H162  1  0.45634000  0.75688000  0.86327000  1.0
  H  H163  1  0.63702000  0.79696000  0.87132000  1.0
  H  H164  1  0.73752000  0.62048000  0.82041000  1.0
  H  H165  1  0.55378000  0.58122000  0.80980000  1.0
  H  H166  1  0.63586000  0.67044000  0.43303000  1.0
  H  H167  1  0.81414000  0.67720000  0.46378000  1.0
  H  H168  1  0.92396000  0.71622000  0.30429000  1.0
  H  H169  1  0.74182000  0.70914000  0.27297000  1.0
  H  H170  1  0.11270000  0.23798000  0.01909000  1.0
  H  H171  1  0.29336000  0.24566000  0.99043000  1.0
  H  H172  1  0.39548000  0.24188000  0.15361000  1.0
  H  H173  1  0.21318000  0.23424000  0.18252000  1.0
  H  H174  1  0.23494000  0.14064000  0.55443000  1.0
  H  H175  1  0.04424000  0.13274000  0.55042000  1.0
  H  H176  1  0.03620000  0.27350000  0.67076000  1.0
  H  H177  1  0.22770000  0.28030000  0.67639000  1.0
  H  H178  1  0.37244000  0.84616000  0.77887000  1.0
  H  H179  1  0.42670000  0.95302000  0.75420000  1.0
  H  H180  1  0.14194000  0.96280000  0.66451000  1.0
  H  H181  1  0.08768000  0.85646000  0.68872000  1.0
  H  H182  1  0.22932000  0.49932000  0.28208000  1.0
  H  H183  1  0.13288000  0.41622000  0.23339000  1.0
  H  H184  1  0.14954000  0.52858000  0.09156000  1.0
  H  H185  1  0.24440000  0.61168000  0.13994000  1.0
  H  H186  1  0.69166000  0.87730000  0.29316000  1.0
  H  H187  1  0.82806000  0.95340000  0.26599000  1.0
  H  H188  1  0.59864000  0.08436000  0.23360000  1.0
  H  H189  1  0.45938000  0.00634000  0.26061000  1.0
  H  H190  1  0.86936000  0.35610000  0.62636000  1.0
  H  H191  1  0.94480000  0.43390000  0.68773000  1.0
  H  H192  1  0.63506000  0.47236000  0.73813000  1.0
  H  H193  1  0.56012000  0.39540000  0.67534000  1.0
  H  H194  1  0.44054000  0.30210000  0.86531000  1.0
  H  H195  1  0.30120000  0.36926000  0.88446000  1.0
  H  H196  1  0.08170000  0.24280000  0.80123000  1.0
  H  H197  1  0.22108000  0.17548000  0.78217000  1.0
  H  H198  1  0.19264000  0.13160000  0.23810000  1.0
  H  H199  1  0.18824000  0.02326000  0.26621000  1.0
  H  H200  1  0.97132000  0.06062000  0.39081000  1.0
  H  H201  1  0.97954000  0.16922000  0.36437000  1.0
  H  H202  1  0.42736000  0.59464000  0.11271000  1.0
  H  H203  1  0.54412000  0.52056000  0.07863000  1.0
  H  H204  1  0.79996000  0.66248000  0.08139000  1.0
  H  H205  1  0.68226000  0.73688000  0.11393000  1.0
  H  H206  1  0.66218000  0.68940000  0.71876000  1.0
  H  H207  1  0.54022000  0.76912000  0.70627000  1.0
  H  H208  1  0.76518000  0.87184000  0.60600000  1.0
  H  H209  1  0.88714000  0.79158000  0.61861000  1.0
  H  H210  1  0.15760000  0.46500000  0.96687000  1.0
  H  H211  1  0.03334000  0.37630000  0.98718000  1.0
  H  H212  1  0.77776000  0.48328000  0.94303000  1.0
  H  H213  1  0.90130000  0.57234000  0.92300000  1.0
  H  H214  1  0.68652000  0.94160000  0.53591000  1.0
  H  H215  1  0.61046000  0.83552000  0.52347000  1.0
  H  H216  1  0.31298000  0.90496000  0.48677000  1.0
  H  H217  1  0.38750000  0.01112000  0.50050000  1.0
  H  H218  1  0.17836000  0.86592000  0.98812000  1.0
  H  H219  1  0.17232000  0.91128000  0.07690000  1.0
  H  H220  1  0.15152000  0.72802000  0.14560000  1.0
  H  H221  1  0.15278000  0.68244000  0.05636000  1.0
  H  H222  1  0.26294000  0.65612000  0.60467000  1.0
  H  H223  1  0.24524000  0.64004000  0.51017000  1.0
  H  H224  1  0.11946000  0.45156000  0.53736000  1.0
  H  H225  1  0.13602000  0.46838000  0.63315000  1.0
  H  H226  1  0.71782000  0.19882000  0.84767000  1.0
  H  H227  1  0.69538000  0.18656000  0.94255000  1.0
  H  H228  1  0.60216000  0.99196000  0.92104000  1.0
  H  H229  1  0.62358000  0.00448000  0.82516000  1.0
  H  H230  1  0.53548000  0.27140000  0.38546000  1.0
  H  H231  1  0.59880000  0.33240000  0.30944000  1.0
  H  H232  1  0.79976000  0.44836000  0.41218000  1.0
  H  H233  1  0.73280000  0.38780000  0.48933000  1.0
  O  O234  1  0.95234000  0.68866000  0.66457000  1.0
  O  O235  1  0.23050000  0.44990000  0.81659000  1.0
  O  O236  1  0.20808000  0.77358000  0.92115000  1.0
  O  O237  1  0.23564000  0.75602000  0.79468000  1.0
  O  O238  1  0.09240000  0.75860000  0.74159000  1.0
  O  O239  1  0.18286000  0.63580000  0.69654000  1.0
  O  O240  1  0.17630000  0.53332000  0.71853000  1.0
  O  O241  1  0.34050000  0.60054000  0.80075000  1.0
  O  O242  1  0.31680000  0.66310000  0.87327000  1.0
  O  O243  1  0.00240000  0.74210000  0.85310000  1.0
  O  O244  1  0.90280000  0.68154000  0.79082000  1.0
  O  O245  1  0.96710000  0.56044000  0.72687000  1.0
  O  O246  1  0.01022000  0.51120000  0.80581000  1.0
  O  O247  1  0.19206000  0.55724000  0.89555000  1.0
  O  O248  1  0.08836000  0.63328000  0.92221000  1.0
  O  O249  1  0.87070000  0.68210000  0.73958000  1.0
  O  O250  1  0.06740000  0.46690000  0.82526000  1.0
  O  O251  1  0.11982000  0.69064000  0.94798000  1.0
  O  O252  1  0.09016000  0.62704000  0.81258000  1.0
  O  O253  1  0.13174000  0.87504000  0.30119000  1.0
  O  O254  1  0.17144000  0.61446000  0.38616000  1.0
  O  O255  1  0.40228000  0.68706000  0.17847000  1.0
  O  O256  1  0.31292000  0.81332000  0.20476000  1.0
  O  O257  1  0.17520000  0.83420000  0.26381000  1.0
  O  O258  1  0.13470000  0.77672000  0.38458000  1.0
  O  O259  1  0.14184000  0.67146000  0.36305000  1.0
  O  O260  1  0.32382000  0.60604000  0.29558000  1.0
  O  O261  1  0.32820000  0.66620000  0.21756000  1.0
  O  O262  1  0.50994000  0.82846000  0.29103000  1.0
  O  O263  1  0.38408000  0.89542000  0.29595000  1.0
  O  O264  1  0.37986000  0.82308000  0.40492000  1.0
  O  O265  1  0.30836000  0.73118000  0.43746000  1.0
  O  O266  1  0.49154000  0.69306000  0.37115000  1.0
  O  O267  1  0.53590000  0.69014000  0.28381000  1.0
  O  O268  1  0.20720000  0.91906000  0.36981000  1.0
  O  O269  1  0.31718000  0.59430000  0.42208000  1.0
  O  O270  1  0.53238000  0.75522000  0.18013000  1.0
  O  O271  1  0.29298000  0.74208000  0.30436000  1.0
  O  O272  1  0.80796000  0.43210000  0.09092000  1.0
  O  O273  1  0.78614000  0.14220000  0.02785000  1.0
  O  O274  1  0.02770000  0.20724000  0.22001000  1.0
  O  O275  1  0.98348000  0.35452000  0.19456000  1.0
  O  O276  1  0.89168000  0.37950000  0.11700000  1.0
  O  O277  1  0.83372000  0.36922000  0.07274000  1.0
  O  O278  1  0.77096000  0.28046000  0.02834000  1.0
  O  O279  1  0.96320000  0.23888000  0.08440000  1.0
  O  O280  1  0.00828000  0.21732000  0.16971000  1.0
  O  O281  1  0.78734000  0.32148000  0.26973000  1.0
  O  O282  1  0.80180000  0.40588000  0.21515000  1.0
  O  O283  1  0.61344000  0.31644000  0.08159000  1.0
  O  O284  1  0.61492000  0.20984000  0.09694000  1.0
  O  O285  1  0.81552000  0.13530000  0.15297000  1.0
  O  O286  1  0.80084000  0.17766000  0.23827000  1.0
  O  O287  1  0.66838000  0.45494000  0.12617000  1.0
  O  O288  1  0.64512000  0.15366000  0.07309000  1.0
  O  O289  1  0.99640000  0.25342000  0.29074000  1.0
  O  O290  1  0.76852000  0.26864000  0.16167000  1.0
  O  O291  1  0.41944000  0.16458000  0.75802000  1.0
  O  O292  1  0.54076000  0.98632000  0.65150000  1.0
  O  O293  1  0.58422000  0.22130000  0.47734000  1.0
  O  O294  1  0.41162000  0.20092000  0.57086000  1.0
  O  O295  1  0.41526000  0.24210000  0.65665000  1.0
  O  O296  1  0.43318000  0.11806000  0.72111000  1.0
  O  O297  1  0.48678000  0.03562000  0.66470000  1.0
  O  O298  1  0.66904000  0.05334000  0.56325000  1.0
  O  O299  1  0.52740000  0.09422000  0.53082000  1.0
  O  O300  1  0.62464000  0.28754000  0.59102000  1.0
  O  O301  1  0.67164000  0.27054000  0.67781000  1.0
  O  O302  1  0.67370000  0.16864000  0.75281000  1.0
  O  O303  1  0.65718000  0.06526000  0.73933000  1.0
  O  O304  1  0.80554000  0.13122000  0.64066000  1.0
  O  O305  1  0.75454000  0.17220000  0.55866000  1.0
  O  O306  1  0.50230000  0.25360000  0.77370000  1.0
  O  O307  1  0.70518000  0.96878000  0.65620000  1.0
  O  O308  1  0.61758000  0.28862000  0.53627000  1.0
  O  O309  1  0.56328000  0.14254000  0.63753000  1.0
  O  O310  1  0.82554000  0.78066000  0.89050000  1.0
  O  O311  1  0.00598000  0.69636000  0.45626000  1.0
  O  O312  1  0.48680000  0.24242000  0.00249000  1.0
  O  O313  1  0.90620000  0.26224000  0.57328000  1.0
  O  O314  1  0.23806000  0.06668000  0.69786000  1.0
  O  O315  1  0.09802000  0.40822000  0.08172000  1.0
  O  O316  1  0.90182000  0.05472000  0.23159000  1.0
  O  O317  1  0.79050000  0.48462000  0.80854000  1.0
  O  O318  1  0.01370000  0.34352000  0.84876000  1.0
  O  O319  1  0.96280000  0.94660000  0.34706000  1.0
  O  O320  1  0.84134000  0.55278000  0.04940000  1.0
  O  O321  1  0.47912000  0.86258000  0.65081000  1.0
  O  O322  1  0.76874000  0.35008000  0.93919000  1.0
  O  O323  1  0.41666000  0.75934000  0.52964000  1.0
  O  O324  1  0.09658000  0.89192000  0.17815000  1.0
  O  O325  1  0.09484000  0.49758000  0.44183000  1.0
  O  O326  1  0.56112000  0.04386000  0.01403000  1.0
  O  O327  1  0.78438000  0.47698000  0.30595000  1.0
  U  U328  1  0.15968000  0.70104000  0.86109000  1.0
  U  U329  1  0.03634000  0.65806000  0.73690000  1.0
  U  U330  1  0.18202000  0.54732000  0.80737000  1.0
  U  U331  1  0.42062000  0.75172000  0.24832000  1.0
  U  U332  1  0.26576000  0.83104000  0.33954000  1.0
  U  U333  1  0.31836000  0.67296000  0.36445000  1.0
  U  U334  1  0.89154000  0.26704000  0.22025000  1.0
  U  U335  1  0.72244000  0.35998000  0.14450000  1.0
  U  U336  1  0.79232000  0.21204000  0.09302000  1.0
  U  U337  1  0.58164000  0.18810000  0.56192000  1.0
  U  U338  1  0.54650000  0.20148000  0.70266000  1.0
  U  U339  1  0.65898000  0.06696000  0.65060000  1.0
