# generated using pymatgen
data_Zn2C12(N2O5)3
_symmetry_space_group_name_H-M   'P 1'
_cell_length_a   12.96450000
_cell_length_b   25.88560000
_cell_length_c   25.88599126
_cell_angle_alpha   120.00050000
_cell_angle_beta   90.00000000
_cell_angle_gamma   90.00000000
_symmetry_Int_Tables_number   1
_chemical_formula_structural   Zn2C12(N2O5)3
_chemical_formula_sum   'Zn12 C72 N36 O90'
_cell_volume   7523.28045235
_cell_formula_units_Z   6
loop_
 _symmetry_equiv_pos_site_id
 _symmetry_equiv_pos_as_xyz
  1  'x, y, z'
loop_
 _atom_site_type_symbol
 _atom_site_label
 _atom_site_symmetry_multiplicity
 _atom_site_fract_x
 _atom_site_fract_y
 _atom_site_fract_z
 _atom_site_occupancy
  Zn  Zn0  1  0.87128000  0.23937000  0.41948000  1.0
  Zn  Zn1  1  0.13160750  0.18494000  0.36268000  1.0
  Zn  Zn2  1  0.57772000  0.41923500  0.20434500  1.0
  Zn  Zn3  1  0.81946000  0.40497250  0.19476250  1.0
  Zn  Zn4  1  0.18816000  0.21822000  0.73624000  1.0
  Zn  Zn5  1  0.45532000  0.21641000  0.78840000  1.0
  Zn  Zn6  1  0.87445000  0.76490500  0.57587000  1.0
  Zn  Zn7  1  0.12959000  0.85631250  0.66482250  1.0
  Zn  Zn8  1  0.51030250  0.55902000  0.75379000  1.0
  Zn  Zn9  1  0.75427000  0.58827500  0.78966500  1.0
  Zn  Zn10  1  0.25622000  0.77645500  0.24631000  1.0
  Zn  Zn11  1  0.51437000  0.79450500  0.16303000  1.0
  C  C12  1  0.68414000  0.27598000  0.41422000  1.0
  C  C13  1  0.96647750  0.20904250  0.30059250  1.0
  C  C14  1  0.86409750  0.33708250  0.53020250  1.0
  C  C15  1  0.32677000  0.22107000  0.40192000  1.0
  C  C16  1  0.02729000  0.19629500  0.45495500  1.0
  C  C17  1  0.22696500  0.07237000  0.30782000  1.0
  C  C18  1  0.39374000  0.40449000  0.15717000  1.0
  C  C19  1  0.67928250  0.35361750  0.10261000  1.0
  C  C20  1  0.53961500  0.53030500  0.21797750  1.0
  C  C21  1  0.03246000  0.41162250  0.20362000  1.0
  C  C22  1  0.71016000  0.47813250  0.29760250  1.0
  C  C23  1  0.86380500  0.29082000  0.17387000  1.0
  C  C24  1  0.00520000  0.16932000  0.69764000  1.0
  C  C25  1  0.27771000  0.14504000  0.78656000  1.0
  C  C26  1  0.19894000  0.21888000  0.63146000  1.0
  C  C27  1  0.64368000  0.20752000  0.74275000  1.0
  C  C28  1  0.34239000  0.30047000  0.78196000  1.0
  C  C29  1  0.50458750  0.26450000  0.90962750  1.0
  C  C30  1  0.68117000  0.80878500  0.62063500  1.0
  C  C31  1  0.98875000  0.77614000  0.68493000  1.0
  C  C32  1  0.81515000  0.66463750  0.46801500  1.0
  C  C33  1  0.32733000  0.88306000  0.65179000  1.0
  C  C34  1  0.04949000  0.81231000  0.53833000  1.0
  C  C35  1  0.14844250  0.96128000  0.76823000  1.0
  C  C36  1  0.32732000  0.57396000  0.80182000  1.0
  C  C37  1  0.58778000  0.65800000  0.85210000  1.0
  C  C38  1  0.50778000  0.45575000  0.75844000  1.0
  C  C39  1  0.95523750  0.55746000  0.77872000  1.0
  C  C40  1  0.67116000  0.50526000  0.68047000  1.0
  C  C41  1  0.84317000  0.68644500  0.79765500  1.0
  C  C42  1  0.05851000  0.78638500  0.21075000  1.0
  C  C43  1  0.36556500  0.87190000  0.23356000  1.0
  C  C44  1  0.15361500  0.78648000  0.34491000  1.0
  C  C45  1  0.70795250  0.75266000  0.13444500  1.0
  C  C46  1  0.42954500  0.70086500  0.20094500  1.0
  C  C47  1  0.48942000  0.79698000  0.05707000  1.0
  C  C48  1  0.30216000  0.92601500  0.26542250  1.0
  C  C49  1  0.24233000  0.01133250  0.29666000  1.0
  C  C50  1  0.94237750  0.21390000  0.24751000  1.0
  C  C51  1  0.89661000  0.24855750  0.19338000  1.0
  C  C52  1  0.64808000  0.33700000  0.04178250  1.0
  C  C53  1  0.57002500  0.30203500  0.96098250  1.0
  C  C54  1  0.24701000  0.09999000  0.80201000  1.0
  C  C55  1  0.18674000  0.02264000  0.79603000  1.0
  C  C56  1  0.96991000  0.75779500  0.72957000  1.0
  C  C57  1  0.90421000  0.72184000  0.77835000  1.0
  C  C58  1  0.50209000  0.76906000  0.99244000  1.0
  C  C59  1  0.54742000  0.71044000  0.90528000  1.0
  C  C60  1  0.41959000  0.25438750  0.40729500  1.0
  C  C61  1  0.57272000  0.27801000  0.41264000  1.0
  C  C62  1  0.12880000  0.40985500  0.17471000  1.0
  C  C63  1  0.28284000  0.40463500  0.15349000  1.0
  C  C64  1  0.73874000  0.17811250  0.71324000  1.0
  C  C65  1  0.89397750  0.16202000  0.69400000  1.0
  C  C66  1  0.44021000  0.87886000  0.64582750  1.0
  C  C67  1  0.59145000  0.84770500  0.63275500  1.0
  C  C68  1  0.21758000  0.56956000  0.81138000  1.0
  C  C69  1  0.05893250  0.56060000  0.80149000  1.0
  C  C70  1  0.81981250  0.74912000  0.13850500  1.0
  C  C71  1  0.96959500  0.76329750  0.17097000  1.0
  C  C72  1  0.81438000  0.39565000  0.56219000  1.0
  C  C73  1  0.72111000  0.46392500  0.62410500  1.0
  C  C74  1  0.53774250  0.57669250  0.20107750  1.0
  C  C75  1  0.48950250  0.64921500  0.19317750  1.0
  C  C76  1  0.07528000  0.18139250  0.49723750  1.0
  C  C77  1  0.15709750  0.18984000  0.57048000  1.0
  C  C78  1  0.71610250  0.52771750  0.35886500  1.0
  C  C79  1  0.76255000  0.60755500  0.43204000  1.0
  C  C80  1  0.46698000  0.42384000  0.78786000  1.0
  C  C81  1  0.38796000  0.35827000  0.79658000  1.0
  C  C82  1  0.09445250  0.82128000  0.49119000  1.0
  C  C83  1  0.13837500  0.81107000  0.40915000  1.0
  N  N84  1  0.21912750  0.93059000  0.29872000  1.0
  N  N85  1  0.18121750  0.98485250  0.31870000  1.0
  N  N86  1  0.98398000  0.17827000  0.19342000  1.0
  N  N87  1  0.95475000  0.20009000  0.15912000  1.0
  N  N88  1  0.69180000  0.36114000  0.01153000  1.0
  N  N89  1  0.64244750  0.33880000  0.96013000  1.0
  N  N90  1  0.28965750  0.09526250  0.84688250  1.0
  N  N91  1  0.25141750  0.04608000  0.84305000  1.0
  N  N92  1  0.02101000  0.78189000  0.78175000  1.0
  N  N93  1  0.97959000  0.75904000  0.81253000  1.0
  N  N94  1  0.46809250  0.79271000  0.95961000  1.0
  N  N95  1  0.49584750  0.75494750  0.90393000  1.0
  N  N96  1  0.42260000  0.30000000  0.39635000  1.0
  N  N97  1  0.52060000  0.31528750  0.40001000  1.0
  N  N98  1  0.13330250  0.40771750  0.12171000  1.0
  N  N99  1  0.23200000  0.40451500  0.10817000  1.0
  N  N100  1  0.74700000  0.11928750  0.67435000  1.0
  N  N101  1  0.84635000  0.10902000  0.66190000  1.0
  N  N102  1  0.49768250  0.91814250  0.63855000  1.0
  N  N103  1  0.59375000  0.89836000  0.63023000  1.0
  N  N104  1  0.17965000  0.58055750  0.86437750  1.0
  N  N105  1  0.07854000  0.57508000  0.85816000  1.0
  N  N106  1  0.87644250  0.70361000  0.09711000  1.0
  N  N107  1  0.97186500  0.71264750  0.11777500  1.0
  N  N108  1  0.77890000  0.42528000  0.53530000  1.0
  N  N109  1  0.72007000  0.46910000  0.57492000  1.0
  N  N110  1  0.60684750  0.58225500  0.16529250  1.0
  N  N111  1  0.57646750  0.62870000  0.16056500  1.0
  N  N112  1  0.06474000  0.12900000  0.49588000  1.0
  N  N113  1  0.11654750  0.13444000  0.54256000  1.0
  N  N114  1  0.66113000  0.53321750  0.40551000  1.0
  N  N115  1  0.69107750  0.58420000  0.45234750  1.0
  N  N116  1  0.42677000  0.45102000  0.84333000  1.0
  N  N117  1  0.37682000  0.40930000  0.84895000  1.0
  N  N118  1  0.16598500  0.86346000  0.50271000  1.0
  N  N119  1  0.19370500  0.85707000  0.45071000  1.0
  O  O120  1  0.73803000  0.31352000  0.40491000  1.0
  O  O121  1  0.73145000  0.23500000  0.42122000  1.0
  O  O122  1  0.89839000  0.22868000  0.34400000  1.0
  O  O123  1  0.05755000  0.18814750  0.30347500  1.0
  O  O124  1  0.84473750  0.29833750  0.54761750  1.0
  O  O125  1  0.89636500  0.31780500  0.47549000  1.0
  O  O126  1  0.31747000  0.19086500  0.43003250  1.0
  O  O127  1  0.25293000  0.22080000  0.36742000  1.0
  O  O128  1  0.07815250  0.22817000  0.43755000  1.0
  O  O129  1  0.92877000  0.18842000  0.44298000  1.0
  O  O130  1  0.28848250  0.09368000  0.28268000  1.0
  O  O131  1  0.15276000  0.10603500  0.34360000  1.0
  O  O132  1  0.44888000  0.40199000  0.11346500  1.0
  O  O133  1  0.43910000  0.41213000  0.20578500  1.0
  O  O134  1  0.61678000  0.34741750  0.13867000  1.0
  O  O135  1  0.75778000  0.38914000  0.12532000  1.0
  O  O136  1  0.47432000  0.53411750  0.25849750  1.0
  O  O137  1  0.59830000  0.48250000  0.18965000  1.0
  O  O138  1  0.02845750  0.40365000  0.24984000  1.0
  O  O139  1  0.94870000  0.41503000  0.17773000  1.0
  O  O140  1  0.78146500  0.47489000  0.26026000  1.0
  O  O141  1  0.63134000  0.44121500  0.27903000  1.0
  O  O142  1  0.89347000  0.28144500  0.12136000  1.0
  O  O143  1  0.82100750  0.34228000  0.21151000  1.0
  O  O144  1  0.06380000  0.12226000  0.66694000  1.0
  O  O145  1  0.04765500  0.22122000  0.73446000  1.0
  O  O146  1  0.20874000  0.16426000  0.76288000  1.0
  O  O147  1  0.37349000  0.16382000  0.79728000  1.0
  O  O148  1  0.18356000  0.27639000  0.66590000  1.0
  O  O149  1  0.22113000  0.18652000  0.65624000  1.0
  O  O150  1  0.63952000  0.26601750  0.77364750  1.0
  O  O151  1  0.56556000  0.17575750  0.74338750  1.0
  O  O152  1  0.39606000  0.25213000  0.75020000  1.0
  O  O153  1  0.24226000  0.29476000  0.78384000  1.0
  O  O154  1  0.45525000  0.21924000  0.90753000  1.0
  O  O155  1  0.50679000  0.27169250  0.86268250  1.0
  O  O156  1  0.67187000  0.75977250  0.62347000  1.0
  O  O157  1  0.76833000  0.82004000  0.60193000  1.0
  O  O158  1  0.92213000  0.75956500  0.64097000  1.0
  O  O159  1  0.06672000  0.81271750  0.69483250  1.0
  O  O160  1  0.86619750  0.68830000  0.44117500  1.0
  O  O161  1  0.81206500  0.69184000  0.52652000  1.0
  O  O162  1  0.27942500  0.92319000  0.64374000  1.0
  O  O163  1  0.27265000  0.84668000  0.66291000  1.0
  O  O164  1  0.09892250  0.83698000  0.58907000  1.0
  O  O165  1  0.96501000  0.78068000  0.52884000  1.0
  O  O166  1  0.18122250  0.92666000  0.78843000  1.0
  O  O167  1  0.10887000  0.93680000  0.71441000  1.0
  O  O168  1  0.38824250  0.59397250  0.84843250  1.0
  O  O169  1  0.36788000  0.55606000  0.74866000  1.0
  O  O170  1  0.53876000  0.63896000  0.80171000  1.0
  O  O171  1  0.66728000  0.62836000  0.85531000  1.0
  O  O172  1  0.49312000  0.43182500  0.70077000  1.0
  O  O173  1  0.53301000  0.51269000  0.78987000  1.0
  O  O174  1  0.94197000  0.54566250  0.72358000  1.0
  O  O175  1  0.87686750  0.57531000  0.81591000  1.0
  O  O176  1  0.71412000  0.51371000  0.72988000  1.0
  O  O177  1  0.57929000  0.52741000  0.68191000  1.0
  O  O178  1  0.85488000  0.69757250  0.85269000  1.0
  O  O179  1  0.79007000  0.63888000  0.76005000  1.0
  O  O180  1  0.05222250  0.83723750  0.26109750  1.0
  O  O181  1  0.14264500  0.75392750  0.19745000  1.0
  O  O182  1  0.33989250  0.82170000  0.23002000  1.0
  O  O183  1  0.45097000  0.87066500  0.20597000  1.0
  O  O184  1  0.10769500  0.73663250  0.30657000  1.0
  O  O185  1  0.22035750  0.81172000  0.32595000  1.0
  O  O186  1  0.65856250  0.70648250  0.09234000  1.0
  O  O187  1  0.65553000  0.79973000  0.17337500  1.0
  O  O188  1  0.46972000  0.73732750  0.18416500  1.0
  O  O189  1  0.33799750  0.71088000  0.22697000  1.0
  O  O190  1  0.48376750  0.85526750  0.09012000  1.0
  O  O191  1  0.49501250  0.76379250  0.08217000  1.0
  O  O192  1  0.31692000  0.97547000  0.26390000  1.0
  O  O193  1  0.88914250  0.25761000  0.24806000  1.0
  O  O194  1  0.57289000  0.30045000  0.01102000  1.0
  O  O195  1  0.18427000  0.05535000  0.77027000  1.0
  O  O196  1  0.89747000  0.72066000  0.72695000  1.0
  O  O197  1  0.55122000  0.71862000  0.95946000  1.0
  O  O198  1  0.51141250  0.24037000  0.41722000  1.0
  O  O199  1  0.22032000  0.40789000  0.19469000  1.0
  O  O200  1  0.82856000  0.20466000  0.72577000  1.0
  O  O201  1  0.49725000  0.83520000  0.64211000  1.0
  O  O202  1  0.14391000  0.55731000  0.77229000  1.0
  O  O203  1  0.87635000  0.78605000  0.18421500  1.0
  O  O204  1  0.77869000  0.41905000  0.61665000  1.0
  O  O205  1  0.46552750  0.61752000  0.21816250  1.0
  O  O206  1  0.13116750  0.21897000  0.54302000  1.0
  O  O207  1  0.77806000  0.57314000  0.37486500  1.0
  O  O208  1  0.44257000  0.36696000  0.75888000  1.0
  O  O209  1  0.07715000  0.78851000  0.43355000  1.0
